OpenDSS/Feeder_7732/LineCodes.dss
New Linecode.OVR_800_21875_3 units=km nphases=3 Rmatrix=(1e-05 0.0 0.0 | 0.0 1e-05 0.0 | 0.0 0.0 1e-05 ) Xmatrix=(1e-05 0.0 0.0 | 0.0 1e-05 0.0 | 0.0 0.0 1e-05 ) normamps=800.0

New Linecode.21859_3 units=km nphases=3 Rmatrix=(1e-05 0.0 0.0 | 0.0 1e-05 0.0 | 0.0 0.0 1e-05 ) Xmatrix=(1e-05 0.0 0.0 | 0.0 1e-05 0.0 | 0.0 0.0 1e-05 ) normamps=800.0

New Linecode.1P_OH_Code0 units=km nphases=1 Rmatrix=(0.778272 ) Xmatrix=(0.8465603333333332 ) normamps=10.0 emergamps=10.0

New Linecode.3P_OH_Code1 units=km nphases=3 Rmatrix=(0.4354239999999999 0.22844799999999996 0.22844799999999996 | 0.22844799999999996 0.4354239999999999 0.22844799999999996 | 0.22844799999999996 0.22844799999999996 0.4354239999999999 ) Xmatrix=(1.1996163333333332 0.5697123333333333 0.5697123333333333 | 0.5697123333333333 1.1996163333333332 0.5697123333333333 | 0.5697123333333333 0.5697123333333333 1.1996163333333332 ) normamps=10.0 emergamps=10.0

New Linecode.21898_3 units=km nphases=3 Rmatrix=(1e-05 0.0 0.0 | 0.0 1e-05 0.0 | 0.0 0.0 1e-05 ) Xmatrix=(1e-05 0.0 0.0 | 0.0 1e-05 0.0 | 0.0 0.0 1e-05 ) normamps=600.0

New Linecode.3P_OH_Code2 units=km nphases=3 Rmatrix=(0.9511043333333333 0.22827233333333327 0.22827233333333327 | 0.22827233333333327 0.9511043333333333 0.22827233333333327 | 0.22827233333333327 0.22827233333333327 0.9511043333333333 ) Xmatrix=(1.3780793333333332 0.5702403333333333 0.5702403333333333 | 0.5702403333333333 1.3780793333333332 0.5702403333333333 | 0.5702403333333333 0.5702403333333333 1.3780793333333332 ) normamps=10.0 emergamps=10.0

New Linecode.1P_OH_Code3 units=km nphases=1 Rmatrix=(1.0244956666666665 ) Xmatrix=(0.906928 ) normamps=10.0 emergamps=10.0

New Linecode.K_100_13.8KV_2 units=km nphases=2 Rmatrix=(1e-05 0.0 | 0.0 1e-05 ) Xmatrix=(1e-05 0.0 | 0.0 1e-05 ) normamps=90.0

New Linecode.VSA_600_21398_3 units=km nphases=3 Rmatrix=(1e-05 0.0 0.0 | 0.0 1e-05 0.0 | 0.0 0.0 1e-05 ) Xmatrix=(1e-05 0.0 0.0 | 0.0 1e-05 0.0 | 0.0 0.0 1e-05 ) normamps=600.0

New Linecode.1P_OH_Code4 units=km nphases=1 Rmatrix=(0.7288156666666665 ) Xmatrix=(0.8359996666666666 ) normamps=10.0 emergamps=10.0

New Linecode.SUB_O_13.0KV_3 units=km nphases=3 Rmatrix=(1e-05 0.0 0.0 | 0.0 1e-05 0.0 | 0.0 0.0 1e-05 ) Xmatrix=(1e-05 0.0 0.0 | 0.0 1e-05 0.0 | 0.0 0.0 1e-05 ) normamps=1200.0

New Linecode.3P_OH_Code5 units=km nphases=3 Rmatrix=(0.000528 0.0 0.0 | 0.0 0.000528 0.0 | 0.0 0.0 0.000528 ) Xmatrix=(0.000528 0.0 0.0 | 0.0 0.000528 0.0 | 0.0 0.0 0.000528 ) normamps=10.0 emergamps=10.0

New Linecode.K_65_13.8KV_1 units=km nphases=1 Rmatrix=(1e-05 ) Xmatrix=(1e-05 ) normamps=55.0

New Linecode.2P_OH_Code6 units=km nphases=2 Rmatrix=(1.8782719999999997 0.228272 | 0.228272 1.8782719999999997 ) Xmatrix=(1.3992003333333332 0.5702403333333333 | 0.5702403333333333 1.3992003333333332 ) normamps=10.0 emergamps=10.0

New Linecode.DEFAULT_3 units=km nphases=3 Rmatrix=(1e-05 0.0 0.0 | 0.0 1e-05 0.0 | 0.0 0.0 1e-05 ) Xmatrix=(1e-05 0.0 0.0 | 0.0 1e-05 0.0 | 0.0 0.0 1e-05 ) normamps=600.0

New Linecode.K_101_13.8KV_1 units=km nphases=1 Rmatrix=(1e-05 ) Xmatrix=(1e-05 ) normamps=100.0

New Linecode.1P_OH_Code7 units=km nphases=1 Rmatrix=(0.46921633333333324 ) Xmatrix=(0.8395199999999999 ) normamps=10.0 emergamps=10.0

New Linecode.3P_OH_Code8 units=km nphases=3 Rmatrix=(1.8782719999999997 0.228272 0.228272 | 0.228272 1.8782719999999997 0.228272 | 0.228272 0.228272 1.8782719999999997 ) Xmatrix=(1.3992003333333332 0.5702403333333333 0.5702403333333333 | 0.5702403333333333 1.3992003333333332 0.5702403333333333 | 0.5702403333333333 0.5702403333333333 1.3992003333333332 ) normamps=10.0 emergamps=10.0

New Linecode.OVR_800_21859_3 units=km nphases=3 normamps=800.0

New Linecode.OVR_800_21859_3_9 units=km nphases=3 Rmatrix=(1e-05 0.0 0.0 | 0.0 1e-05 0.0 | 0.0 0.0 1e-05 ) Xmatrix=(1e-05 0.0 0.0 | 0.0 1e-05 0.0 | 0.0 0.0 1e-05 ) normamps=800.0

New Linecode.11825_3 units=km nphases=3 Rmatrix=(1e-05 0.0 0.0 | 0.0 1e-05 0.0 | 0.0 0.0 1e-05 ) Xmatrix=(1e-05 0.0 0.0 | 0.0 1e-05 0.0 | 0.0 0.0 1e-05 ) normamps=600.0

New Linecode.21052_3 units=km nphases=3 Rmatrix=(1e-05 0.0 0.0 | 0.0 1e-05 0.0 | 0.0 0.0 1e-05 ) Xmatrix=(1e-05 0.0 0.0 | 0.0 1e-05 0.0 | 0.0 0.0 1e-05 ) normamps=600.0

New Linecode.K_100_13.8KV_1 units=km nphases=1 Rmatrix=(1e-05 ) Xmatrix=(1e-05 ) normamps=90.0

New Linecode.3P_OH_Code10 units=km nphases=3 Rmatrix=(0.5323993333333333 0.22827233333333333 0.22827233333333333 | 0.22827233333333333 0.5323993333333333 0.22827233333333333 | 0.22827233333333333 0.22827233333333333 0.5323993333333333 ) Xmatrix=(1.2189763333333332 0.5695363333333332 0.5695363333333332 | 0.5695363333333332 1.2189763333333332 0.5695363333333332 | 0.5695363333333332 0.5695363333333332 1.2189763333333332 ) normamps=10.0 emergamps=10.0

New Linecode.1P_OH_Code11 units=km nphases=1 Rmatrix=(0.8340643333333333 ) Xmatrix=(0.9914083333333334 ) normamps=10.0 emergamps=10.0

New Linecode.SUB_V_13.0KV_3 units=km nphases=3 Rmatrix=(1e-05 0.0 0.0 | 0.0 1e-05 0.0 | 0.0 0.0 1e-05 ) Xmatrix=(1e-05 0.0 0.0 | 0.0 1e-05 0.0 | 0.0 0.0 1e-05 ) normamps=1200.0

New Linecode.3P_OH_Code12 units=km nphases=3 Rmatrix=(1.7309596666666665 0.22774366666666657 0.22774366666666657 | 0.22774366666666657 1.7309596666666665 0.22774366666666657 | 0.22774366666666657 0.22774366666666657 1.7309596666666665 ) Xmatrix=(1.3675203333333332 0.5702393333333333 0.5702393333333333 | 0.5702393333333333 1.3675203333333332 0.5702393333333333 | 0.5702393333333333 0.5702393333333333 1.3675203333333332 ) normamps=10.0 emergamps=10.0

New Linecode.1P_OH_Code13 units=km nphases=1 Rmatrix=(0.778272 ) Xmatrix=(0.8907363333333332 ) normamps=10.0 emergamps=10.0

New Linecode.2P_OH_Code14 units=km nphases=2 Rmatrix=(1.7309596666666665 0.22774366666666657 | 0.22774366666666657 1.7309596666666665 ) Xmatrix=(1.3675203333333332 0.5702393333333333 | 0.5702393333333333 1.3675203333333332 ) normamps=10.0 emergamps=10.0

New Linecode.K_65_13.8KV_2 units=km nphases=2 Rmatrix=(1e-05 0.0 | 0.0 1e-05 ) Xmatrix=(1e-05 0.0 | 0.0 1e-05 ) normamps=55.0

New Linecode.SWT_TERMINATOR_3 units=km nphases=3 Rmatrix=(1e-05 0.0 0.0 | 0.0 1e-05 0.0 | 0.0 0.0 1e-05 ) Xmatrix=(1e-05 0.0 0.0 | 0.0 1e-05 0.0 | 0.0 0.0 1e-05 ) normamps=600.0

New Linecode.SWT_TERMINATOR_1 units=km nphases=1 Rmatrix=(1e-05 ) Xmatrix=(1e-05 ) normamps=600.0

New Linecode.QG8_80_13.8KV_3 units=km nphases=3 Rmatrix=(1e-05 0.0 0.0 | 0.0 1e-05 0.0 | 0.0 0.0 1e-05 ) Xmatrix=(1e-05 0.0 0.0 | 0.0 1e-05 0.0 | 0.0 0.0 1e-05 ) normamps=72.0

New Linecode.K_40_13.8KV_1 units=km nphases=1 Rmatrix=(1e-05 ) Xmatrix=(1e-05 ) normamps=37.0

New Linecode.1P_UG_Code15 units=km nphases=1 Rmatrix=(0.9525119999999999 ) Xmatrix=(0.24639966666666666 )

New Linecode.1P_UG_Code16 units=km nphases=1 Rmatrix=(1.0230883333333332 ) Xmatrix=(0.45337599999999995 )

New Linecode.K_25_13.8KV_1 units=km nphases=1 Rmatrix=(1e-05 ) Xmatrix=(1e-05 ) normamps=20.0

New Linecode.K_100_13.8KV_3 units=km nphases=3 Rmatrix=(1e-05 0.0 0.0 | 0.0 1e-05 0.0 | 0.0 0.0 1e-05 ) Xmatrix=(1e-05 0.0 0.0 | 0.0 1e-05 0.0 | 0.0 0.0 1e-05 ) normamps=90.0

New Linecode.1P_UG_Code17 units=km nphases=1 Rmatrix=(0.00017600000000000002 ) Xmatrix=(0.00017600000000000002 )

New Linecode.K_25_13.8KV_3 units=km nphases=3 Rmatrix=(1e-05 0.0 0.0 | 0.0 1e-05 0.0 | 0.0 0.0 1e-05 ) Xmatrix=(1e-05 0.0 0.0 | 0.0 1e-05 0.0 | 0.0 0.0 1e-05 ) normamps=20.0

New Linecode.3P_UG_Code18 units=km nphases=3 Rmatrix=(0.41289699999999996 0.19483199999999995 0.19483199999999995 | 0.19483199999999995 0.41289699999999996 0.19483199999999995 | 0.19483199999999995 0.19483199999999995 0.41289699999999996 ) Xmatrix=(0.202224 0.0068639999999999994 0.0068639999999999994 | 0.0068639999999999994 0.202224 0.0068639999999999994 | 0.0068639999999999994 0.0068639999999999994 0.202224 )

New Linecode.XL_80_13.8KV_3 units=km nphases=3 Rmatrix=(1e-05 0.0 0.0 | 0.0 1e-05 0.0 | 0.0 0.0 1e-05 ) Xmatrix=(1e-05 0.0 0.0 | 0.0 1e-05 0.0 | 0.0 0.0 1e-05 ) normamps=75.0

New Linecode.3P_UG_Code19 units=km nphases=3 Rmatrix=(2.1104163333333332 0.47942433333333334 0.47942433333333334 | 0.47942433333333334 2.1104163333333332 0.47942433333333334 | 0.47942433333333334 0.47942433333333334 2.1104163333333332 ) Xmatrix=(0.6346559999999999 0.362736 0.362736 | 0.362736 0.6346559999999999 0.362736 | 0.362736 0.362736 0.6346559999999999 )

New Linecode.K_40_13.8KV_3 units=km nphases=3 Rmatrix=(1e-05 0.0 0.0 | 0.0 1e-05 0.0 | 0.0 0.0 1e-05 ) Xmatrix=(1e-05 0.0 0.0 | 0.0 1e-05 0.0 | 0.0 0.0 1e-05 ) normamps=37.0

New Linecode.3P_UG_Code20 units=km nphases=3 Rmatrix=(0.000528 0.0 0.0 | 0.0 0.000528 0.0 | 0.0 0.0 0.000528 ) Xmatrix=(0.000528 0.0 0.0 | 0.0 0.000528 0.0 | 0.0 0.0 0.000528 )

New Linecode.3P_UG_Code21 units=km nphases=3 Rmatrix=(2.03984 0.408848 0.408848 | 0.408848 2.03984 0.408848 | 0.408848 0.408848 2.03984 ) Xmatrix=(0.5026556666666667 0.11827166666666668 0.11827166666666668 | 0.11827166666666668 0.5026556666666667 0.11827166666666668 | 0.11827166666666668 0.11827166666666668 0.5026556666666667 )

New Linecode.12447_1 units=km nphases=1 Rmatrix=(1e-05 ) Xmatrix=(1e-05 ) normamps=200.0

New Linecode.E_100_13.8KV_3 units=km nphases=3 Rmatrix=(1e-05 0.0 0.0 | 0.0 1e-05 0.0 | 0.0 0.0 1e-05 ) Xmatrix=(1e-05 0.0 0.0 | 0.0 1e-05 0.0 | 0.0 0.0 1e-05 ) normamps=85.0

New Linecode.K_15_13.8KV_1 units=km nphases=1 Rmatrix=(1e-05 ) Xmatrix=(1e-05 ) normamps=12.0

New Linecode.K_80_13.8KV_3 units=km nphases=3 Rmatrix=(1e-05 0.0 0.0 | 0.0 1e-05 0.0 | 0.0 0.0 1e-05 ) Xmatrix=(1e-05 0.0 0.0 | 0.0 1e-05 0.0 | 0.0 0.0 1e-05 ) normamps=70.0

New Linecode.12917_3 units=km nphases=3 Rmatrix=(1e-05 0.0 0.0 | 0.0 1e-05 0.0 | 0.0 0.0 1e-05 ) Xmatrix=(1e-05 0.0 0.0 | 0.0 1e-05 0.0 | 0.0 0.0 1e-05 ) normamps=600.0

New Linecode.3P_UG_Code22 units=km nphases=3 Rmatrix=(0.3007836666666666 0.20996866666666666 0.20996866666666666 | 0.20996866666666666 0.3007836666666666 0.20996866666666666 | 0.20996866666666666 0.20996866666666666 0.3007836666666666 ) Xmatrix=(0.195184 0.0066879999999999995 0.0066879999999999995 | 0.0066879999999999995 0.195184 0.0066879999999999995 | 0.0066879999999999995 0.0066879999999999995 0.195184 )

New Linecode.K_10_13.8KV_1 units=km nphases=1 Rmatrix=(1e-05 ) Xmatrix=(1e-05 ) normamps=7.0

New Linecode.11239_1 units=km nphases=1 Rmatrix=(1e-05 ) Xmatrix=(1e-05 ) normamps=300.0

New Linecode.XL_80_13.8KV_1 units=km nphases=1 Rmatrix=(1e-05 ) Xmatrix=(1e-05 ) normamps=75.0

New Linecode.XL_100_13.8KV_3 units=km nphases=3 Rmatrix=(1e-05 0.0 0.0 | 0.0 1e-05 0.0 | 0.0 0.0 1e-05 ) Xmatrix=(1e-05 0.0 0.0 | 0.0 1e-05 0.0 | 0.0 0.0 1e-05 ) normamps=90.0

New Linecode.K_20_13.8KV_1 units=km nphases=1 Rmatrix=(1e-05 ) Xmatrix=(1e-05 ) normamps=17.0

New Linecode.K_65_13.8KV_3 units=km nphases=3 Rmatrix=(1e-05 0.0 0.0 | 0.0 1e-05 0.0 | 0.0 0.0 1e-05 ) Xmatrix=(1e-05 0.0 0.0 | 0.0 1e-05 0.0 | 0.0 0.0 1e-05 ) normamps=55.0

New Linecode.K_30_13.8KV_1 units=km nphases=1 Rmatrix=(1e-05 ) Xmatrix=(1e-05 ) normamps=27.0

New Linecode.D_10_13.8KV_1 units=km nphases=1 Rmatrix=(1e-05 ) Xmatrix=(1e-05 ) normamps=5.0

New Linecode.D_10_13.8KV_3 units=km nphases=3 Rmatrix=(1e-05 0.0 0.0 | 0.0 1e-05 0.0 | 0.0 0.0 1e-05 ) Xmatrix=(1e-05 0.0 0.0 | 0.0 1e-05 0.0 | 0.0 0.0 1e-05 ) normamps=5.0

