OpenDSS/Feeder_7732/Lines.dss
New Line.oh_29332316 Units=km Length=0.010176959000000001 bus1=422437_17_166237_348.1.2.3 bus2=TIEPOINT_31007102024.1.2.3 switch=n enabled=y phases=3 Linecode=OVR_800_21875_3

New Line.oh_5776538 Units=km Length=0.129189686 bus1=419216_849_164897_781.1.2.3 bus2=31109102006.1.2.3 switch=y enabled=n phases=3 Linecode=21859_3

New Line.oh_5186417 Units=km Length=0.03689196 bus1=31007102513.1 bus2=31007102512.1 switch=n enabled=y phases=1 Linecode=1P_OH_Code0

New Line.oh_5207923-2 Units=km Length=0.11050404600000001 bus1=420532_809_163855_896.1.2.3 bus2=31108302054.1.2.3 switch=n enabled=y phases=3 Linecode=3P_OH_Code1

New Line.oh_5222585 Units=km Length=0.144257908 bus1=31109102014_37293748.1.2.3 bus2=31109102516.1.2.3 switch=y enabled=y phases=3 Linecode=21898_3

New Line.oh_5222649 Units=km Length=0.064588618 bus1=31109102523.1.2.3 bus2=31109102011.1.2.3 switch=n enabled=y phases=3 Linecode=3P_OH_Code2

New Line.oh_5207001 Units=km Length=0.12000000400000001 bus1=31108302028.1.2.3 bus2=420713_883_163803_97.1.2.3 switch=n enabled=y phases=3 Linecode=3P_OH_Code1

New Line.oh_14847869 Units=km Length=0.26979221999999997 bus1=30908202509.1 bus2=421422_768_167911_411.1 switch=n enabled=y phases=1 Linecode=1P_OH_Code3

New Line.oh_5207258 Units=km Length=0.01256 bus1=31108202020.2.3 bus2=31108202021.2.3 switch=n enabled=y phases=2 Linecode=K_100_13.8KV_2

New Fuse.Fuse_oh_5207258 monitoredobj=Line.oh_5207258 enabled=y ratedcurrent=10000.0

New Line.oh_5207263-1 Units=km Length=0.40767913 bus1=31108202022.1.2.3 bus2=31108202020.1.2.3 switch=n enabled=y phases=3 Linecode=3P_OH_Code1

New Line.oh_5243472 Units=km Length=0.125140004 bus1=31108302501.1.2.3 bus2=TIEPOINT_31108302005.1.2.3 switch=n enabled=y phases=3 Linecode=VSA_600_21398_3

New Line.oh_5244830 Units=km Length=0.09500000300000001 bus1=31109102512.1.2.3 bus2=31109102010.1.2.3 switch=n enabled=y phases=3 Linecode=3P_OH_Code2

New Line.oh_5244912 Units=km Length=0.17050507099999998 bus1=31007302069.1.2.3 bus2=31007302044_5445897.1.2.3 switch=n enabled=y phases=3 Linecode=3P_OH_Code1

New Line.oh_14847175-1 Units=km Length=0.14443382 bus1=422537_995_167276_625.1.2.3 bus2=422534_845_167320_578.1.2.3 switch=n enabled=y phases=3 Linecode=3P_OH_Code1

New Line.oh_5222839-3 Units=km Length=0.13280337 bus1=31109402502.1.2.3 bus2=420122_41_164001_156.1.2.3 switch=n enabled=y phases=3 Linecode=3P_OH_Code1

New Line.oh_5243511 Units=km Length=0.113687123 bus1=31007102010.1.2.3 bus2=31007102011.1.2.3 switch=n enabled=y phases=3 Linecode=3P_OH_Code1

New Line.oh_5186425 Units=km Length=0.540000017 bus1=422529_227_166443_654.1 bus2=422695_478_166451_568.1 switch=n enabled=y phases=1 Linecode=1P_OH_Code4

New Line.oh_5186538 Units=km Length=0.08032800500000001 bus1=422459_418_166376_291.1.2.3 bus2=31007102510.1.2.3 switch=n enabled=y phases=3 Linecode=3P_OH_Code1

New Line.oh_5516885 Units=km Length=0.01 bus1=SOURCE_7732-1.1.2.3 bus2=31109103502.1.2.3 switch=y enabled=y phases=3 Linecode=SUB_O_13.0KV_3

New Line.oh_5208036 Units=km Length=0.098763537 bus1=420952_804_164009_2.1.2.3 bus2=420947_884_164038_939.1.2.3 switch=n enabled=y phases=3 Linecode=3P_OH_Code1

New Line.oh_14847880 Units=km Length=0.169234746 bus1=30908202509.1 bus2=421518_838_167915_891.1 switch=n enabled=y phases=1 Linecode=1P_OH_Code0

New Line.oh_5516386 Units=km Length=0.02000004 bus1=31109103066.1.2.3 bus2=5517698-1.1.2.3 switch=n enabled=y phases=3 Linecode=3P_OH_Code5

New Line.oh_5223029-1 Units=km Length=0.086041269 bus1=31109102002.1.2.3 bus2=419208_115_164934_839.1.2.3 switch=n enabled=y phases=3 Linecode=3P_OH_Code1

New Line.oh_5186281-3 Units=km Length=0.156887364 bus1=31007102014.1.2.3 bus2=422411_83_166213_296.1.2.3 switch=n enabled=y phases=3 Linecode=3P_OH_Code1

New Line.oh_29332314 Units=km Length=0.02000004 bus1=422437_17_166237_348.1.2.3 bus2=TIEPOINT_31007102024.1.2.3 switch=y enabled=n phases=3 Linecode=21898_3

New Line.oh_5207988 Units=km Length=0.100000003 bus1=420571_826_163845_007.1.2.3 bus2=420588_003_163840_498.1.2.3 switch=n enabled=y phases=3 Linecode=3P_OH_Code1

New Line.oh_5204357-1 Units=km Length=0.103087434 bus1=421861_122_165564_535.1.2.3 bus2=421873_837_165592_213.1.2.3 switch=n enabled=y phases=3 Linecode=3P_OH_Code1

New Line.oh_5208029 Units=km Length=0.186681174 bus1=420930_291_163925_214.1.2.3 bus2=420954_187_163976_899.1.2.3 switch=n enabled=y phases=3 Linecode=3P_OH_Code1

New Line.oh_5185275-6 Units=km Length=0.371816892 bus1=422549_348_167023_21.1.2.3 bus2=30907302506.1.2.3 switch=n enabled=y phases=3 Linecode=3P_OH_Code1

New Line.oh_5208077 Units=km Length=0.169870488 bus1=419661_63_164388_544.3 bus2=419637_366_164342_857.3 switch=n enabled=y phases=1 Linecode=1P_OH_Code0

New Line.oh_5222975 Units=km Length=0.471536324 bus1=31109202012.2 bus2=420177_331_164531_389.2 switch=n enabled=y phases=1 Linecode=1P_OH_Code0

New Line.oh_5222557 Units=km Length=0.157492331 bus1=31109102509.1.2.3 bus2=419329_348_164703_337.1.2.3 switch=n enabled=y phases=3 Linecode=3P_OH_Code1

New Line.oh_5186403-1 Units=km Length=0.108964833 bus1=421892_563_165633_895.1.2.3 bus2=31007302069.1.2.3 switch=n enabled=y phases=3 Linecode=3P_OH_Code1

New Line.oh_5185340 Units=km Length=0.27962317800000003 bus1=30907302506.1.2.3 bus2=422542_318_167185_05.1.2.3 switch=n enabled=y phases=3 Linecode=3P_OH_Code1

New Line.oh_5207263-3 Units=km Length=0.26220667200000003 bus1=421282_182_164549_5.1.2.3 bus2=31108202503.1.2.3 switch=n enabled=y phases=3 Linecode=3P_OH_Code1

New Line.oh_14847175-3 Units=km Length=0.163803467 bus1=422533_887_167353_436.1.2.3 bus2=30907302000_15050083.1.2.3 switch=n enabled=y phases=3 Linecode=3P_OH_Code1

New Line.oh_14847891-2 Units=km Length=0.143283673 bus1=30908202512.1.2.3 bus2=421615_793_167881_186.1.2.3 switch=n enabled=y phases=3 Linecode=3P_OH_Code1

New Line.oh_5222839-1 Units=km Length=0.20076438600000002 bus1=420205_399_163967_73.1.2.3 bus2=420263_025_163947_562.1.2.3 switch=n enabled=y phases=3 Linecode=3P_OH_Code1

New Line.oh_5243344-2 Units=km Length=0.18186390700000002 bus1=422278_191_166039_735.1.2.3 bus2=31007102013.1.2.3 switch=n enabled=y phases=3 Linecode=3P_OH_Code1

New Line.oh_5186309-2 Units=km Length=0.198243225 bus1=31007102513.1.2.3 bus2=422183_827_165973_859.1.2.3 switch=n enabled=y phases=3 Linecode=3P_OH_Code1

New Line.oh_5204441 Units=km Length=0.12142350500000001 bus1=421711_098_165180_565.1.2.3 bus2=421730_805_165211_926.1.2.3 switch=n enabled=y phases=3 Linecode=3P_OH_Code1

New Line.oh_5207520-1 Units=km Length=0.34124447900000004 bus1=31108202503.3 bus2=421258_627_164693_867.3 switch=n enabled=y phases=1 Linecode=1P_OH_Code0

New Line.oh_5208064 Units=km Length=0.021227442 bus1=31109202505.2 bus2=419528_434_164522_652.2 switch=n enabled=y phases=1 Linecode=1P_OH_Code0

New Line.oh_5208054 Units=km Length=0.407451552 bus1=420821_527_164159_055.3 bus2=420722_35_164233_84.3 switch=n enabled=y phases=1 Linecode=1P_OH_Code3

New Line.oh_40944202 Units=km Length=0.06821356199999999 bus1=420928_664_163724_052.1.2.3 bus2=TIEPOINT_31108302064.1.2.3 switch=n enabled=y phases=3 Linecode=3P_OH_Code1

New Line.oh_5185171 Units=km Length=0.378336849 bus1=422429_242_167110_902.2 bus2=422316_405_167134_561.2 switch=n enabled=y phases=1 Linecode=1P_OH_Code0

New Line.oh_14856505 Units=km Length=0.173686315 bus1=30907102019.1.2.3 bus2=422279_962_167707_63.1.2.3 switch=n enabled=y phases=3 Linecode=3P_OH_Code1

New Line.oh_5207633-9 Units=km Length=0.201579961 bus1=31108102506.1.2.3 bus2=420955_644_164306_948.1.2.3 switch=n enabled=y phases=3 Linecode=3P_OH_Code1

New Line.oh_14847571 Units=km Length=0.146135474 bus1=421547_552_167747_67.2 bus2=30908202508.2 switch=n enabled=y phases=1 Linecode=K_65_13.8KV_1

New Fuse.Fuse_oh_14847571 monitoredobj=Line.oh_14847571 enabled=y ratedcurrent=10000.0

New Line.oh_5207789-2 Units=km Length=0.13775827899999998 bus1=420713_883_163803_97.1.2.3 bus2=420755_065_163792_089.1.2.3 switch=n enabled=y phases=3 Linecode=3P_OH_Code1

New Line.oh_5186281-1 Units=km Length=0.123987678 bus1=31007102018.1.2.3 bus2=31007102019.1.2.3 switch=n enabled=y phases=3 Linecode=3P_OH_Code1

New Line.oh_14847833-2 Units=km Length=0.12514908200000002 bus1=421600_142_167854_055.1.2.3 bus2=30908202507.1.2.3 switch=n enabled=y phases=3 Linecode=3P_OH_Code1

New Line.oh_14845428-2 Units=km Length=0.16913787300000002 bus1=30808402002.1.2.3 bus2=421221_001_168397_668.1.2.3 switch=n enabled=y phases=3 Linecode=3P_OH_Code1

New Line.oh_5207628 Units=km Length=0.18808747 bus1=420918_277_164087_374.1.3 bus2=420871_68_164120_888.1.3 switch=n enabled=y phases=2 Linecode=2P_OH_Code6

New Line.oh_5776524 Units=km Length=0.129189686 bus1=419215_451_164903_662.1.2.3 bus2=31109102006.1.2.3 switch=n enabled=y phases=3 Linecode=3P_OH_Code1

New Line.oh_5204357-3 Units=km Length=0.150768706 bus1=421816_696_165439_965.1.2.3 bus2=421831_532_165481_969.1.2.3 switch=n enabled=y phases=3 Linecode=3P_OH_Code1

New Line.oh_5207570 Units=km Length=0.121105778 bus1=420947_884_164038_939.1.2.3 bus2=31108302507.1.2.3 switch=n enabled=y phases=3 Linecode=3P_OH_Code1

New Line.oh_5207972-2 Units=km Length=0.311619462 bus1=421078_884_164447_488.2 bus2=31108102005.2 switch=n enabled=y phases=1 Linecode=1P_OH_Code0

New Line.oh_14847390-1 Units=km Length=0.159154821 bus1=422118_989_167736_929.1.2.3 bus2=30907102505.1.2.3 switch=n enabled=y phases=3 Linecode=3P_OH_Code1

New Line.oh_5222571 Units=km Length=0.33874967600000006 bus1=419329_348_164703_337.1.2.3 bus2=31109102014_37293748.1.2.3 switch=n enabled=y phases=3 Linecode=3P_OH_Code1

New Line.oh_14847955-4 Units=km Length=0.107790879 bus1=30808402501.1.2.3 bus2=30808402001.1.2.3 switch=n enabled=y phases=3 Linecode=3P_OH_Code1

New Line.oh_14846975-1 Units=km Length=0.183679779 bus1=422475_023_167511_353.1.2.3 bus2=30907102506.1.2.3 switch=n enabled=y phases=3 Linecode=3P_OH_Code1

New Line.oh_5222950-1 Units=km Length=0.190022349 bus1=419950_58_164400_26.2 bus2=419973_63_164446_5.2 switch=n enabled=y phases=1 Linecode=1P_OH_Code0

New Line.oh_5516900 Units=km Length=0.01 bus1=31109103066.1.2.3 bus2=31109103032_5517430.1.2.3 switch=y enabled=y phases=3 Linecode=DEFAULT_3

New Line.oh_5207520-3 Units=km Length=0.132467954 bus1=421217_53_164740_16.3 bus2=421199_111_164774_969.3 switch=n enabled=y phases=1 Linecode=1P_OH_Code0

New Line.oh_5222660 Units=km Length=0.099471178 bus1=31109202008.2 bus2=31109202503.2 switch=n enabled=y phases=1 Linecode=1P_OH_Code0

New Line.oh_14847884 Units=km Length=0.10246828100000001 bus1=421615_793_167881_186.1.2.3 bus2=421600_142_167854_055.1.2.3 switch=y enabled=y phases=3 Linecode=21898_3

New Line.oh_5243903 Units=km Length=0.19933241799999998 bus1=420397_599_163890_626.1.2.3 bus2=420413_611_163883_34.1.2.3 switch=n enabled=y phases=3 Linecode=3P_OH_Code1

New Line.oh_5206960 Units=km Length=0.12000000400000001 bus1=420588_003_163840_498.1.2.3 bus2=420632_644_163827_848.1.2.3 switch=n enabled=y phases=3 Linecode=3P_OH_Code1

New Line.oh_5243499 Units=km Length=0.135564184 bus1=420866_498_163825_132.1.2.3 bus2=31108302004.1.2.3 switch=n enabled=y phases=3 Linecode=3P_OH_Code1

New Line.oh_5776569 Units=km Length=0.107195683 bus1=31108202502.2 bus2=421176_373_164390_132.2 switch=n enabled=y phases=1 Linecode=K_101_13.8KV_1

New Fuse.Fuse_oh_5776569 monitoredobj=Line.oh_5776569 enabled=y ratedcurrent=10000.0

New Line.oh_14846800-1 Units=km Length=0.14412556599999998 bus1=422279_962_167707_63.1.2.3 bus2=422236_429_167701_623.1.2.3 switch=n enabled=y phases=3 Linecode=3P_OH_Code1

New Line.oh_5222714-1 Units=km Length=0.301732913 bus1=419570_571_164471_8.1.2.3 bus2=31109202101_5445652.1.2.3 switch=n enabled=y phases=3 Linecode=3P_OH_Code1

New Line.oh_5222950 Units=km Length=0.268070494 bus1=31109202006.2 bus2=419950_58_164400_26.2 switch=n enabled=y phases=1 Linecode=1P_OH_Code0

New Line.oh_5222987 Units=km Length=0.39799751600000005 bus1=31109202505.2 bus2=419464_822_164413_811.2 switch=n enabled=y phases=1 Linecode=1P_OH_Code3

New Line.oh_14847848-2 Units=km Length=0.104822684 bus1=30908202509.1 bus2=421477_302_167843_507.1 switch=n enabled=y phases=1 Linecode=1P_OH_Code3

New Line.oh_38212343-3 Units=km Length=0.10618617100000001 bus1=31109202013.2 bus2=31109202014.2 switch=n enabled=y phases=1 Linecode=1P_OH_Code0

New Line.oh_5207633-2 Units=km Length=0.106941913 bus1=421160_11_164362_335.1.2.3 bus2=31108202019.1.2.3 switch=n enabled=y phases=3 Linecode=3P_OH_Code1

New Line.oh_14847564 Units=km Length=0.12932338300000001 bus1=30908202507.2 bus2=421565_769_167784_799.2 switch=n enabled=y phases=1 Linecode=1P_OH_Code7

New Line.oh_14847891-6 Units=km Length=0.18969817900000002 bus1=30908202531_15050139.1.2.3 bus2=30908202061.1.2.3 switch=n enabled=y phases=3 Linecode=3P_OH_Code1

New Line.oh_5245108 Units=km Length=0.065000002 bus1=31109202009.1.2.3 bus2=31109402003.1.2.3 switch=n enabled=y phases=3 Linecode=3P_OH_Code8

New Line.oh_5207073-1 Units=km Length=0.08564671900000001 bus1=31108302505.1.2.3 bus2=31108302513_5446149.1.2.3 switch=n enabled=y phases=3 Linecode=3P_OH_Code1

New Line.oh_5186309-6 Units=km Length=0.132020946 bus1=31007102509.1.2.3 bus2=31007102501.1.2.3 switch=n enabled=y phases=3 Linecode=3P_OH_Code1

New Line.oh_5776531 Units=km Length=0.129189686 bus1=31109102006.1.2.3 bus2=419216_849_164897_781.1.2.3 switch=n enabled=y phases=3 Linecode=OVR_800_21859_3

New Line.oh_14846920-1 Units=km Length=0.138332691 bus1=30907102002.1.2.3 bus2=30907102001.1.2.3 switch=n enabled=y phases=3 Linecode=3P_OH_Code1

New Line.oh_5222536 Units=km Length=0.020640237 bus1=31109102011.1.2.3 bus2=419373_719_164762_838.1.2.3 switch=n enabled=y phases=3 Linecode=3P_OH_Code2

New Line.oh_5222543-1 Units=km Length=0.129326215 bus1=419399_71_164703_621.1.2.3 bus2=419415_531_164667_469.1.2.3 switch=n enabled=y phases=3 Linecode=3P_OH_Code2

New Line.oh_14847840 Units=km Length=0.159813207 bus1=30908202507.1.2.3 bus2=421538_642_167846_227.1.2.3 switch=n enabled=y phases=3 Linecode=3P_OH_Code2

New Line.oh_5207761-2 Units=km Length=0.156031636 bus1=420413_611_163883_34.1.2.3 bus2=31108302501.1.2.3 switch=n enabled=y phases=3 Linecode=3P_OH_Code1

New Line.oh_14855946 Units=km Length=0.11179336000000001 bus1=30808402001.1.2.3 bus2=30808402043.1.2.3 switch=n enabled=y phases=3 Linecode=3P_OH_Code1

New Line.oh_5243444 Units=km Length=0.001 bus1=422499_219_166723_104.1.2.3 bus2=422499_132_166723_548.1.2.3 switch=n enabled=y phases=3 Linecode=3P_OH_Code1

New Line.oh_14845476 Units=km Length=0.252017426 bus1=30808402501.3 bus2=421227_078_168290_554.3 switch=n enabled=y phases=1 Linecode=1P_OH_Code0

New Line.oh_5207775-2 Units=km Length=0.084119707 bus1=31108302505.1.2.3 bus2=420830_865_163732_785.1.2.3 switch=n enabled=y phases=3 Linecode=3P_OH_Code1

New Line.oh_14847450 Units=km Length=0.08174853 bus1=30907102517.1.2.3 bus2=30907102513_15050063.1.2.3 switch=n enabled=y phases=3 Linecode=3P_OH_Code1

New Line.oh_24047080 Units=km Length=0.15000031000000003 bus1=30908202060.2 bus2=421466_633_167604_351.2 switch=n enabled=y phases=1 Linecode=1P_OH_Code0

New Line.oh_5244023 Units=km Length=0.16500000499999998 bus1=420486_006_163868_874.1.2.3 bus2=420532_809_163855_896.1.2.3 switch=n enabled=y phases=3 Linecode=3P_OH_Code1

New Line.oh_5186556 Units=km Length=0.07659482199999999 bus1=422453_086_166353_848.1.2.3 bus2=422459_418_166376_291.1.2.3 switch=n enabled=y phases=3 Linecode=3P_OH_Code1

New Line.oh_5204473 Units=km Length=0.185161873 bus1=31008402000.1 bus2=421753_808_165427_468.1 switch=n enabled=y phases=1 Linecode=K_65_13.8KV_1

New Fuse.Fuse_oh_5204473 monitoredobj=Line.oh_5204473 enabled=y ratedcurrent=10000.0

New Line.oh_5222820 Units=km Length=0.144154453 bus1=31109202018.1.2.3 bus2=31109202504.1.2.3 switch=n enabled=y phases=3 Linecode=3P_OH_Code1

New Line.oh_5185275-8 Units=km Length=0.172333434 bus1=30907302007.1.2.3 bus2=422528_628_166834_98.1.2.3 switch=n enabled=y phases=3 Linecode=3P_OH_Code1

New Line.oh_14847891 Units=km Length=0.25559201600000003 bus1=421594_518_167982_929.1.2.3 bus2=30908202531_15050139.1.2.3 switch=n enabled=y phases=3 Linecode=3P_OH_Code1

New Line.oh_38212343-1 Units=km Length=0.181221623 bus1=31109202012.2 bus2=419977_014_164578_172.2 switch=n enabled=y phases=1 Linecode=1P_OH_Code0

New Line.oh_5185251 Units=km Length=0.127517888 bus1=30907302003.1.2.3 bus2=422537_995_167276_625.1.2.3 switch=n enabled=y phases=3 Linecode=OVR_800_21859_3_9

New Line.oh_5222987-3 Units=km Length=0.15960134 bus1=419464_822_164413_811.2 bus2=419442_617_164374_569.2 switch=n enabled=y phases=1 Linecode=1P_OH_Code3

New Line.oh_5186309-4 Units=km Length=0.121067494 bus1=422060_005_165933_325.1.2.3 bus2=31007102507.1.2.3 switch=n enabled=y phases=3 Linecode=3P_OH_Code1

New Line.oh_5245115 Units=km Length=0.110167467 bus1=30907302014.1.2.3 bus2=30907302007.1.2.3 switch=n enabled=y phases=3 Linecode=3P_OH_Code1

New Line.oh_5204434 Units=km Length=0.13799008599999998 bus1=421730_805_165211_926.1.2.3 bus2=31008402007_5445974.1.2.3 switch=y enabled=y phases=3 Linecode=11825_3

New Line.oh_14846920-3 Units=km Length=0.139613574 bus1=422366_393_167668_464.1.2.3 bus2=30907102018.1.2.3 switch=n enabled=y phases=3 Linecode=3P_OH_Code1

New Line.oh_5222592 Units=km Length=0.11523392800000001 bus1=419492_464_164527_003.1.2.3 bus2=31109202501.1.2.3 switch=n enabled=y phases=3 Linecode=3P_OH_Code1

New Line.oh_5208114 Units=km Length=0.072077076 bus1=31109102509.3 bus2=31109102569.3 switch=n enabled=y phases=1 Linecode=1P_OH_Code0

New Line.oh_5186457-4 Units=km Length=0.194495915 bus1=422045_915_165841_587.2 bus2=422095_27_165808_754.2 switch=n enabled=y phases=1 Linecode=1P_OH_Code0

New Line.oh_5206974 Units=km Length=0.420054715 bus1=420722_35_164233_84.3 bus2=420619_283_164309_615.3 switch=n enabled=y phases=1 Linecode=1P_OH_Code3

New Line.oh_5185275 Units=km Length=0.227247189 bus1=30907302505.1.2.3 bus2=422549_348_167023_21.1.2.3 switch=n enabled=y phases=3 Linecode=3P_OH_Code1

New Line.oh_5222785-1 Units=km Length=0.278722807 bus1=419757_023_164369_91.1.2.3 bus2=419831_209_164328_577.1.2.3 switch=n enabled=y phases=3 Linecode=3P_OH_Code1

New Line.oh_5222258-2 Units=km Length=0.336634588 bus1=31109102512.1.2.3 bus2=419250_55_164795_397.1.2.3 switch=n enabled=y phases=3 Linecode=3P_OH_Code1

New Line.oh_5222778 Units=km Length=0.10369130300000001 bus1=31109202101_5445652.1.2.3 bus2=31109202502.1.2.3 switch=y enabled=y phases=3 Linecode=11825_3

New Line.oh_5222735 Units=km Length=0.150042072 bus1=31109202008.1.2.3 bus2=31109202018.1.2.3 switch=n enabled=y phases=3 Linecode=3P_OH_Code1

New Line.oh_14847824 Units=km Length=0.12257607000000001 bus1=421620_334_167800_823.1.2.3 bus2=TIEPOINT_30908202042.1.2.3 switch=n enabled=y phases=3 Linecode=VSA_600_21398_3

New Line.oh_5207246 Units=km Length=0.12000000400000001 bus1=421548_718_164979_517.1.2.3 bus2=421577_639_165024_002.1.2.3 switch=n enabled=y phases=3 Linecode=3P_OH_Code1

New Line.oh_5207633-6 Units=km Length=0.128666152 bus1=31108302517.1.2.3 bus2=420918_499_164199_499.1.2.3 switch=n enabled=y phases=3 Linecode=3P_OH_Code1

New Line.oh_14847539 Units=km Length=0.061554467 bus1=30908202061.2 bus2=421494_024_168080_237.2 switch=n enabled=y phases=1 Linecode=K_65_13.8KV_1

New Fuse.Fuse_oh_14847539 monitoredobj=Line.oh_14847539 enabled=y ratedcurrent=10000.0

New Line.oh_5204357-4 Units=km Length=0.165239733 bus1=31008402000.1.2.3 bus2=421816_696_165439_965.1.2.3 switch=n enabled=y phases=3 Linecode=3P_OH_Code1

New Line.oh_5222633 Units=km Length=0.102038028 bus1=31109102015_37293758.1.2.3 bus2=31109102523.1.2.3 switch=y enabled=y phases=3 Linecode=21898_3

New Line.oh_5185275-3 Units=km Length=0.227520847 bus1=422552_036_166929_41.1.2.3 bus2=30907302505.1.2.3 switch=n enabled=y phases=3 Linecode=3P_OH_Code1

New Line.oh_5222813 Units=km Length=0.11985670000000001 bus1=419831_209_164328_577.1.2.3 bus2=31109202008.1.2.3 switch=n enabled=y phases=3 Linecode=3P_OH_Code1

New Line.oh_5185181 Units=km Length=0.09799672200000001 bus1=30907302507.3 bus2=30907302514.3 switch=n enabled=y phases=1 Linecode=1P_OH_Code0

New Line.oh_14847955-3 Units=km Length=0.13917946 bus1=30808402543.1.2.3 bus2=30808402501.1.2.3 switch=n enabled=y phases=3 Linecode=3P_OH_Code1

New Line.oh_5204404-2 Units=km Length=0.10780851699999999 bus1=31008402007_5445974.1.2.3 bus2=31008402006.1.2.3 switch=n enabled=y phases=3 Linecode=3P_OH_Code1

New Line.oh_5207263-4 Units=km Length=0.159206242 bus1=421256_447_164508_356.1.2.3 bus2=421282_182_164549_5.1.2.3 switch=n enabled=y phases=3 Linecode=3P_OH_Code1

New Line.oh_5186978 Units=km Length=0.141753741 bus1=31008402005.1.2.3 bus2=421711_098_165180_565.1.2.3 switch=n enabled=y phases=3 Linecode=3P_OH_Code1

New Line.oh_5222839-6 Units=km Length=0.167244638 bus1=31109202009.1.2.3 bus2=31109402101.1.2.3 switch=n enabled=y phases=3 Linecode=3P_OH_Code1

New Line.oh_5222785-3 Units=km Length=0.144882757 bus1=31109202502.1.2.3 bus2=419717_552_164391_015.1.2.3 switch=n enabled=y phases=3 Linecode=3P_OH_Code1

New Line.oh_5207500 Units=km Length=0.118012592 bus1=420302_483_163932_788.1.2.3 bus2=420343_774_163911_357.1.2.3 switch=n enabled=y phases=3 Linecode=3P_OH_Code1

New Line.oh_5186453 Units=km Length=0.146568669 bus1=31007102501.2 bus2=422045_915_165841_587.2 switch=n enabled=y phases=1 Linecode=K_65_13.8KV_1

New Fuse.Fuse_oh_5186453 monitoredobj=Line.oh_5186453 enabled=y ratedcurrent=10000.0

New Line.oh_5204477 Units=km Length=0.39784981900000005 bus1=421753_808_165427_468.1 bus2=421657_579_165501_139.1 switch=n enabled=y phases=1 Linecode=1P_OH_Code0

New Line.oh_5207633-4 Units=km Length=0.135211835 bus1=31108302507.1.2.3 bus2=420933_417_164115_723.1.2.3 switch=n enabled=y phases=3 Linecode=3P_OH_Code1

New Line.oh_5185275-1 Units=km Length=0.281254346 bus1=30907302506.1.2.3 bus2=TIEPOINT_30907302002.1.2.3 switch=n enabled=y phases=3 Linecode=3P_OH_Code1

New Line.oh_14847955-1 Units=km Length=0.33494978400000003 bus1=421425_744_168183_739.1.2.3 bus2=421357_109_168259_266.1.2.3 switch=n enabled=y phases=3 Linecode=3P_OH_Code1

New Line.oh_5185165 Units=km Length=0.20046068600000003 bus1=30907302506.2 bus2=422486_12_167104_736.2 switch=n enabled=y phases=1 Linecode=K_65_13.8KV_1

New Fuse.Fuse_oh_5185165 monitoredobj=Line.oh_5185165 enabled=y ratedcurrent=10000.0

New Line.oh_5186302 Units=km Length=0.034000000999999995 bus1=31007102011.1.2.3 bus2=31007102009.1.2.3 switch=n enabled=y phases=3 Linecode=3P_OH_Code1

New Line.oh_5206968 Units=km Length=0.206879439 bus1=420871_68_164120_888.3 bus2=420821_527_164159_055.3 switch=n enabled=y phases=1 Linecode=1P_OH_Code3

New Line.oh_5222839-4 Units=km Length=0.241466848 bus1=420043_366_164081_218.1.2.3 bus2=31109402502.1.2.3 switch=n enabled=y phases=3 Linecode=3P_OH_Code1

New Line.oh_5243625 Units=km Length=0.149478765 bus1=421644_878_165121_435.1.2.3 bus2=31008402005.1.2.3 switch=n enabled=y phases=3 Linecode=3P_OH_Code1

New Line.oh_5776566 Units=km Length=0.107195683 bus1=31108202019.2 bus2=31108202502.2 switch=n enabled=y phases=1 Linecode=1P_OH_Code0

New Line.oh_5207675 Units=km Length=0.206733251 bus1=420343_774_163911_357.1.2.3 bus2=420397_599_163890_626.1.2.3 switch=n enabled=y phases=3 Linecode=3P_OH_Code1

New Line.oh_5222592-3 Units=km Length=0.308469669 bus1=31109102516.1.2.3 bus2=419492_464_164527_003.1.2.3 switch=n enabled=y phases=3 Linecode=3P_OH_Code1

New Line.oh_5243344-1 Units=km Length=0.395454511 bus1=31007102013.1.2.3 bus2=31007102014.1.2.3 switch=n enabled=y phases=3 Linecode=3P_OH_Code1

New Line.oh_5206991-1 Units=km Length=0.332303242 bus1=420572_504_164347_348.3 bus2=31108102507.3 switch=n enabled=y phases=1 Linecode=1P_OH_Code0

New Line.oh_5186396 Units=km Length=0.086787965 bus1=31007302044_5445897.1.2.3 bus2=421923_651_165705_919.1.2.3 switch=y enabled=y phases=3 Linecode=21052_3

New Line.oh_5206953 Units=km Length=0.11812249400000001 bus1=420263_025_163947_562.1.2.3 bus2=420302_483_163932_788.1.2.3 switch=n enabled=y phases=3 Linecode=3P_OH_Code1

New Line.oh_5223029-2 Units=km Length=0.091239432 bus1=31109102002.1.2.3 bus2=TIEPOINT_31109102536.1.2.3 switch=n enabled=y phases=3 Linecode=3P_OH_Code1

New Line.oh_14847459 Units=km Length=0.134959004 bus1=422159_023_167727_272.1.2.3 bus2=422118_989_167736_929.1.2.3 switch=n enabled=y phases=3 Linecode=3P_OH_Code1

New Line.oh_14847523 Units=km Length=0.055564703 bus1=30908202512.2 bus2=421646_583_167933_448.2 switch=n enabled=y phases=1 Linecode=1P_OH_Code7

New Line.oh_5186985 Units=km Length=0.019338199 bus1=31008402005.2.3 bus2=31008402004.2.3 switch=n enabled=y phases=2 Linecode=K_100_13.8KV_2

New Fuse.Fuse_oh_5186985 monitoredobj=Line.oh_5186985 enabled=y ratedcurrent=10000.0

New Line.oh_5186567 Units=km Length=0.441112012 bus1=31007102507.3 bus2=421987_561_166033_147.3 switch=n enabled=y phases=1 Linecode=1P_OH_Code0

New Line.oh_5222522 Units=km Length=0.15829373200000002 bus1=31109102509.1.2.3 bus2=31109102015_37293758.1.2.3 switch=n enabled=y phases=3 Linecode=3P_OH_Code2

New Line.oh_5222656 Units=km Length=0.128610828 bus1=31109402101.2 bus2=419980_168_164117_581.2 switch=n enabled=y phases=1 Linecode=K_100_13.8KV_1

New Fuse.Fuse_oh_5222656 monitoredobj=Line.oh_5222656 enabled=y ratedcurrent=10000.0

New Line.oh_5185275-7 Units=km Length=0.21714844500000002 bus1=422528_628_166834_98.1.2.3 bus2=422542_678_166877_539.1.2.3 switch=n enabled=y phases=3 Linecode=3P_OH_Code1

New Line.oh_5208074 Units=km Length=0.09432120100000001 bus1=31109202502.3 bus2=419661_63_164388_544.3 switch=n enabled=y phases=1 Linecode=K_100_13.8KV_1

New Fuse.Fuse_oh_5208074 monitoredobj=Line.oh_5208074 enabled=y ratedcurrent=10000.0

New Line.oh_5186403-2 Units=km Length=0.21120249000000002 bus1=421873_837_165592_213.1.2.3 bus2=421892_563_165633_895.1.2.3 switch=n enabled=y phases=3 Linecode=3P_OH_Code1

New Line.oh_14846975-2 Units=km Length=0.151833811 bus1=30907102506.1.2.3 bus2=30907102003.1.2.3 switch=n enabled=y phases=3 Linecode=3P_OH_Code1

New Line.oh_14847435 Units=km Length=0.115473186 bus1=422591_348_167414_769.1.2.3 bus2=422621_213_167396_204.1.2.3 switch=n enabled=y phases=3 Linecode=3P_OH_Code2

New Line.oh_5222839-2 Units=km Length=0.294264852 bus1=420122_41_164001_156.1.2.3 bus2=420205_399_163967_73.1.2.3 switch=n enabled=y phases=3 Linecode=3P_OH_Code1

New Line.oh_5243344-3 Units=km Length=0.269281583 bus1=422219_583_165982_508.1.2.3 bus2=422278_191_166039_735.1.2.3 switch=n enabled=y phases=3 Linecode=3P_OH_Code1

New Line.oh_5186457 Units=km Length=0.411386073 bus1=31007302000.2 bus2=31007302001.2 switch=n enabled=y phases=1 Linecode=1P_OH_Code0

New Line.oh_5223971 Units=km Length=0.662286429 bus1=420728_044_163283_795.3 bus2=420810_575_163132_589.3 switch=n enabled=y phases=1 Linecode=1P_OH_Code4

New Line.oh_5207298 Units=km Length=0.152000005 bus1=31108302513_5446149.1.2.3 bus2=420866_498_163825_132.1.2.3 switch=y enabled=y phases=3 Linecode=11825_3

New Line.oh_5185168 Units=km Length=0.18761551499999998 bus1=422486_12_167104_736.2 bus2=422429_242_167110_902.2 switch=n enabled=y phases=1 Linecode=1P_OH_Code0

New Line.oh_5207633-8 Units=km Length=0.126043734 bus1=420911_129_164240_444.1.2.3 bus2=31108102506.1.2.3 switch=n enabled=y phases=3 Linecode=3P_OH_Code1

New Line.oh_5207789-1 Units=km Length=0.152241731 bus1=420755_065_163792_089.1.2.3 bus2=420799_199_163774_887.1.2.3 switch=n enabled=y phases=3 Linecode=3P_OH_Code1

New Line.oh_5186281-2 Units=km Length=0.102107316 bus1=422411_83_166213_296.1.2.3 bus2=31007102018.1.2.3 switch=n enabled=y phases=3 Linecode=3P_OH_Code1

New Line.oh_14845428-1 Units=km Length=0.108916385 bus1=30808402043.1.2.3 bus2=30808402002.1.2.3 switch=n enabled=y phases=3 Linecode=3P_OH_Code1

New Line.oh_5243618 Units=km Length=0.138412586 bus1=31108202020.1.2.3 bus2=421548_718_164979_517.1.2.3 switch=n enabled=y phases=3 Linecode=3P_OH_Code1

New Line.oh_29332315 Units=km Length=0.054631537 bus1=31007102018.1.2.3 bus2=422437_17_166237_348.1.2.3 switch=n enabled=y phases=3 Linecode=3P_OH_Code10

New Line.oh_5186597 Units=km Length=0.25442219 bus1=31007102019.1.2.3 bus2=422453_086_166353_848.1.2.3 switch=n enabled=y phases=3 Linecode=3P_OH_Code1

New Line.oh_5207923-1 Units=km Length=0.13128213700000002 bus1=31108302054.1.2.3 bus2=420571_826_163845_007.1.2.3 switch=n enabled=y phases=3 Linecode=3P_OH_Code1

New Line.oh_5204357-2 Units=km Length=0.29694248 bus1=421831_532_165481_969.1.2.3 bus2=421861_122_165564_535.1.2.3 switch=n enabled=y phases=3 Linecode=3P_OH_Code1

New Line.oh_5207972-1 Units=km Length=0.379620947 bus1=421176_373_164390_132.2 bus2=421078_884_164447_488.2 switch=n enabled=y phases=1 Linecode=1P_OH_Code0

New Line.oh_5222827 Units=km Length=0.046445769 bus1=31109202504.1.2 bus2=419933_461_164264_668.1.2 switch=n enabled=y phases=2 Linecode=2P_OH_Code6

New Line.oh_14847876 Units=km Length=0.123837743 bus1=421422_768_167911_411.1 bus2=30908202518.1 switch=n enabled=y phases=1 Linecode=1P_OH_Code0

New Line.oh_38212343-4 Units=km Length=0.114084859 bus1=419973_63_164446_5.2 bus2=31109202013.2 switch=n enabled=y phases=1 Linecode=1P_OH_Code0

New Line.oh_5207263-2 Units=km Length=0.851404712 bus1=31108202503.1.2.3 bus2=31108202022.1.2.3 switch=n enabled=y phases=3 Linecode=3P_OH_Code1

New Line.oh_14847175-2 Units=km Length=0.107744111 bus1=422534_845_167320_578.1.2.3 bus2=422533_887_167353_436.1.2.3 switch=n enabled=y phases=3 Linecode=3P_OH_Code1

New Line.oh_14847891-3 Units=km Length=0.140923768 bus1=421614_495_167944_905.1.2.3 bus2=421594_518_167982_929.1.2.3 switch=n enabled=y phases=3 Linecode=3P_OH_Code1

New Line.oh_14847528 Units=km Length=0.154000005 bus1=30908202029.1.2.3 bus2=30908202512.1.2.3 switch=n enabled=y phases=3 Linecode=3P_OH_Code1

New Line.oh_5186309-3 Units=km Length=0.11623654600000001 bus1=31007102507.1.2.3 bus2=31007102513.1.2.3 switch=n enabled=y phases=3 Linecode=3P_OH_Code1

New Line.oh_5516890 Units=km Length=0.01 bus1=31109103502.1.2.3 bus2=31109103031_5517425.1.2.3 switch=y enabled=y phases=3 Linecode=DEFAULT_3

New Line.oh_14856064 Units=km Length=0.13800000399999998 bus1=421713_453_167873_017.2 bus2=30908202049.2 switch=n enabled=y phases=1 Linecode=1P_OH_Code0

New Line.oh_5222619 Units=km Length=0.142543673 bus1=419216_849_164897_781.1.2.3 bus2=31109102512.1.2.3 switch=n enabled=y phases=3 Linecode=3P_OH_Code1

New Line.oh_31530913 Units=km Length=0.182877217 bus1=31108302054.1.2.3 bus2=31108302053.1.2.3 switch=n enabled=y phases=3 Linecode=3P_OH_Code10

New Line.oh_14846904 Units=km Length=0.173686315 bus1=30907102018.1.2.3 bus2=30907102019.1.2.3 switch=y enabled=y phases=3 Linecode=21898_3

New Line.oh_5207775-1 Units=km Length=0.265662538 bus1=31108302505.1.2.3 bus2=420928_664_163724_052.1.2.3 switch=n enabled=y phases=3 Linecode=3P_OH_Code1

New Line.oh_14847568 Units=km Length=0.135634374 bus1=421565_769_167784_799.2 bus2=421547_552_167747_67.2 switch=n enabled=y phases=1 Linecode=1P_OH_Code3

New Line.oh_14845428-3 Units=km Length=0.029268862 bus1=421221_001_168397_668.1.2.3 bus2=TIEPOINT_30808402046.1.2.3 switch=n enabled=y phases=3 Linecode=3P_OH_Code1

New Line.oh_14846800-2 Units=km Length=0.26894964800000004 bus1=422236_429_167701_623.1.2.3 bus2=422159_023_167727_272.1.2.3 switch=n enabled=y phases=3 Linecode=3P_OH_Code1

New Line.oh_5222714-2 Units=km Length=0.11015412100000001 bus1=419542_174_164489_714.1.2.3 bus2=419570_571_164471_8.1.2.3 switch=n enabled=y phases=3 Linecode=3P_OH_Code1

New Line.oh_5222984 Units=km Length=0.053360602 bus1=31109202501.2 bus2=31109202505.2 switch=n enabled=y phases=1 Linecode=K_100_13.8KV_1

New Fuse.Fuse_oh_5222984 monitoredobj=Line.oh_5222984 enabled=y ratedcurrent=10000.0

New Line.oh_5186563 Units=km Length=0.222607779 bus1=421982_844_165833_973.3 bus2=421921_4_165862_666.3 switch=n enabled=y phases=1 Linecode=1P_OH_Code0

New Line.oh_14847390-2 Units=km Length=0.142971927 bus1=30907102505.1.2.3 bus2=TIEPOINT_30907102525.1.2.3 switch=n enabled=y phases=3 Linecode=3P_OH_Code1

New Line.oh_14847848-1 Units=km Length=0.16648927 bus1=421538_642_167846_227.1 bus2=30908202509.1 switch=n enabled=y phases=1 Linecode=1P_OH_Code3

New Line.oh_38212343-2 Units=km Length=0.148666878 bus1=31109202014.2 bus2=31109202012.2 switch=n enabled=y phases=1 Linecode=1P_OH_Code0

New Line.oh_5185244 Units=km Length=0.17343408700000001 bus1=422542_318_167185_05.1.2.3 bus2=30907302003.1.2.3 switch=n enabled=y phases=3 Linecode=3P_OH_Code1

New Line.oh_14847423 Units=km Length=0.232236244 bus1=30907102517.1.2.3 bus2=422591_348_167414_769.1.2.3 switch=n enabled=y phases=3 Linecode=3P_OH_Code1

New Line.oh_14847891-1 Units=km Length=0.113338219 bus1=30908202512.1.2.3 bus2=421614_495_167944_905.1.2.3 switch=n enabled=y phases=3 Linecode=3P_OH_Code1

New Line.oh_14847585 Units=km Length=0.26294057600000004 bus1=30908202508.2 bus2=30908202060.2 switch=n enabled=y phases=1 Linecode=1P_OH_Code0

New Line.oh_5186309-1 Units=km Length=0.120692619 bus1=422183_827_165973_859.1.2.3 bus2=422219_583_165982_508.1.2.3 switch=n enabled=y phases=3 Linecode=3P_OH_Code1

New Line.oh_14847043 Units=km Length=0.172456731 bus1=30907102505.1 bus2=422069_646_167800_625.1 switch=n enabled=y phases=1 Linecode=1P_OH_Code4

New Line.oh_5207520-2 Units=km Length=0.208222825 bus1=421258_627_164693_867.3 bus2=421217_53_164740_16.3 switch=n enabled=y phases=1 Linecode=1P_OH_Code0

New Line.oh_5208111 Units=km Length=0.122343311 bus1=419573_067_163988_228.3 bus2=419606_821_163972_326.3 switch=n enabled=y phases=1 Linecode=1P_OH_Code11

New Line.oh_5208082 Units=km Length=1.192358926 bus1=419637_366_164342_857.3 bus2=419573_067_163988_228.3 switch=n enabled=y phases=1 Linecode=1P_OH_Code11

New Line.oh_5206980 Units=km Length=0.150000005 bus1=420632_644_163827_848.1.2.3 bus2=31108302028.1.2.3 switch=n enabled=y phases=3 Linecode=3P_OH_Code1

New Line.oh_5207775-3 Units=km Length=0.159275176 bus1=420830_865_163732_785.1.2.3 bus2=31108302007.1.2.3 switch=n enabled=y phases=3 Linecode=3P_OH_Code1

New Line.oh_14847833-1 Units=km Length=0.147035418 bus1=30908202507.1.2.3 bus2=421620_334_167800_823.1.2.3 switch=n enabled=y phases=3 Linecode=3P_OH_Code1

New Line.oh_5222640 Units=km Length=0.08557047500000001 bus1=31109102523.1.2.3 bus2=TIEPOINT_31109102525.1.2.3 switch=y enabled=n phases=3 Linecode=11825_3

New Line.oh_5186476 Units=km Length=0.16439673400000002 bus1=31007102510.1.2.3 bus2=31007102503.1.2.3 switch=n enabled=y phases=3 Linecode=3P_OH_Code1

New Line.oh_5208022 Units=km Length=0.10002 bus1=31108302004.1.2.3 bus2=420886_891_163861_155.1.2.3 switch=n enabled=y phases=3 Linecode=OVR_800_21859_3_9

New Line.oh_14847866 Units=km Length=0.127991024 bus1=421385_368_167811_062.1 bus2=30908202052.1 switch=n enabled=y phases=1 Linecode=1P_OH_Code4

New Line.oh_14846989 Units=km Length=0.184551915 bus1=30907102513_15050063.1.2.3 bus2=422475_023_167511_353.1.2.3 switch=y enabled=y phases=3 Linecode=11825_3

New Line.oh_14847848-3 Units=km Length=0.244656665 bus1=421477_302_167843_507.1 bus2=30908202055.1 switch=n enabled=y phases=1 Linecode=1P_OH_Code3

New Line.oh_5207633-3 Units=km Length=0.7015949140000001 bus1=420955_644_164306_948.1.2.3 bus2=421160_11_164362_335.1.2.3 switch=n enabled=y phases=3 Linecode=3P_OH_Code1

New Line.oh_14847891-7 Units=km Length=0.415548767 bus1=30908202061.1.2.3 bus2=421425_744_168183_739.1.2.3 switch=n enabled=y phases=3 Linecode=3P_OH_Code1

New Line.oh_5516905 Units=km Length=0.01 bus1=31109103032_5517430.1.2.3 bus2=TIEPOINT_31109103083.1.2.3 switch=y enabled=n phases=3 Linecode=SUB_V_13.0KV_3

New Line.oh_5207073-2 Units=km Length=0.139353289 bus1=420799_199_163774_887.1.2.3 bus2=31108302505.1.2.3 switch=n enabled=y phases=3 Linecode=3P_OH_Code1

New Line.oh_5186422 Units=km Length=0.17100000499999998 bus1=31007102503.1 bus2=422529_227_166443_654.1 switch=n enabled=y phases=1 Linecode=K_65_13.8KV_1

New Fuse.Fuse_oh_5186422 monitoredobj=Line.oh_5186422 enabled=y ratedcurrent=10000.0

New Line.oh_14846920-2 Units=km Length=0.08948625 bus1=30907102001.1.2.3 bus2=422366_393_167668_464.1.2.3 switch=n enabled=y phases=3 Linecode=3P_OH_Code1

New Line.oh_5207520-4 Units=km Length=0.356623417 bus1=421199_111_164774_969.3 bus2=31108202507.3 switch=n enabled=y phases=1 Linecode=1P_OH_Code0

New Line.oh_5222663 Units=km Length=0.12665962 bus1=31109202503.2 bus2=31109202006.2 switch=n enabled=y phases=1 Linecode=K_100_13.8KV_1

New Fuse.Fuse_oh_5222663 monitoredobj=Line.oh_5222663 enabled=y ratedcurrent=10000.0

New Line.oh_5222508 Units=km Length=0.170074953 bus1=419260_114_164772_552.1.2.3 bus2=31109102509.1.2.3 switch=n enabled=y phases=3 Linecode=3P_OH_Code1

New Line.oh_14846967 Units=km Length=0.079496912 bus1=30907102003.1.2.3 bus2=30907102002.1.2.3 switch=n enabled=y phases=3 Linecode=3P_OH_Code12

New Line.oh_5186457-3 Units=km Length=0.401297047 bus1=422095_27_165808_754.2 bus2=31007302000.2 switch=n enabled=y phases=1 Linecode=1P_OH_Code0

New Line.oh_14847535 Units=km Length=0.145022879 bus1=30908202029.2 bus2=421713_453_167873_017.2 switch=n enabled=y phases=1 Linecode=1P_OH_Code0

New Line.oh_5204449 Units=km Length=0.38885597 bus1=421577_639_165024_002.1.2.3 bus2=421644_878_165121_435.1.2.3 switch=n enabled=y phases=3 Linecode=3P_OH_Code1

New Line.oh_5208043 Units=km Length=0.253954523 bus1=420886_891_163861_155.1.2.3 bus2=420930_291_163925_214.1.2.3 switch=n enabled=y phases=3 Linecode=3P_OH_Code1

New Line.oh_5186389 Units=km Length=0.16088127800000002 bus1=31007102001.1.2.3 bus2=31007102010.1.2.3 switch=n enabled=y phases=3 Linecode=3P_OH_Code1

New Line.oh_5243465 Units=km Length=0.10256 bus1=419208_115_164934_839.1.2.3 bus2=419215_451_164903_662.1.2.3 switch=n enabled=y phases=3 Linecode=3P_OH_Code1

New Line.oh_5243892 Units=km Length=0.235000008 bus1=30907302507.3 bus2=422509_806_166980_245.3 switch=n enabled=y phases=1 Linecode=1P_OH_Code13

New Line.oh_5207633-1 Units=km Length=0.158143493 bus1=31108202019.1.2.3 bus2=31108202013_5445890.1.2.3 switch=n enabled=y phases=3 Linecode=3P_OH_Code1

New Line.oh_5186309-5 Units=km Length=0.275241495 bus1=31007102501.1.2.3 bus2=422060_005_165933_325.1.2.3 switch=n enabled=y phases=3 Linecode=3P_OH_Code1

New Line.oh_5222673 Units=km Length=0.088675196 bus1=31109202501.1.2.3 bus2=419542_174_164489_714.1.2.3 switch=n enabled=y phases=3 Linecode=3P_OH_Code1

New Line.oh_5222543-2 Units=km Length=0.099222877 bus1=419387_54_164731_344.1.2.3 bus2=419399_71_164703_621.1.2.3 switch=n enabled=y phases=3 Linecode=3P_OH_Code2

New Line.oh_5207761-1 Units=km Length=0.12330078500000001 bus1=31108302501.1.2.3 bus2=420486_006_163868_874.1.2.3 switch=n enabled=y phases=3 Linecode=3P_OH_Code1

New Line.oh_5185178 Units=km Length=0.020793088 bus1=30907302505.3 bus2=30907302507.3 switch=n enabled=y phases=1 Linecode=K_65_13.8KV_1

New Fuse.Fuse_oh_5185178 monitoredobj=Line.oh_5185178 enabled=y ratedcurrent=10000.0

New Line.oh_5207263-5 Units=km Length=0.154479782 bus1=421231_832_164468_213.1.2.3 bus2=421256_447_164508_356.1.2.3 switch=n enabled=y phases=3 Linecode=3P_OH_Code1

New Line.oh_14847542 Units=km Length=0.22978758900000001 bus1=421494_024_168080_237.2 bus2=421464_858_168034_419.2 switch=n enabled=y phases=1 Linecode=1P_OH_Code4

New Line.oh_5224637 Units=km Length=0.098763501 bus1=420954_187_163976_899.1.2.3 bus2=420952_804_164009_2.1.2.3 switch=n enabled=y phases=3 Linecode=3P_OH_Code1

New Line.oh_5222839-7 Units=km Length=0.357721544 bus1=31109202504.1.2.3 bus2=31109202009.1.2.3 switch=n enabled=y phases=3 Linecode=3P_OH_Code1

New Line.oh_5186433 Units=km Length=0.105724902 bus1=31007102503.1.2.3 bus2=31007102001.1.2.3 switch=n enabled=y phases=3 Linecode=3P_OH_Code1

New Line.oh_5186553 Units=km Length=0.020277847999999998 bus1=31007102509.3 bus2=421982_844_165833_973.3 switch=n enabled=y phases=1 Linecode=1P_OH_Code0

New Line.oh_5222946 Units=km Length=0.28693040000000003 bus1=31109102516.2 bus2=419369_476_164519_484.2 switch=n enabled=y phases=1 Linecode=1P_OH_Code0

New Line.oh_14847862 Units=km Length=0.21503443300000002 bus1=30908202055.1 bus2=421385_368_167811_062.1 switch=n enabled=y phases=1 Linecode=K_65_13.8KV_1

New Fuse.Fuse_oh_14847862 monitoredobj=Line.oh_14847862 enabled=y ratedcurrent=10000.0

New Line.oh_5223962 Units=km Length=0.21316948500000002 bus1=31208102701.3 bus2=420728_044_163283_795.3 switch=n enabled=y phases=1 Linecode=1P_OH_Code4

New Line.oh_5206991-2 Units=km Length=0.152648663 bus1=31108102507.3 bus2=420475_5_164452_671.3 switch=n enabled=y phases=1 Linecode=1P_OH_Code0

New Line.oh_5207633-7 Units=km Length=0.136494374 bus1=420918_499_164199_499.1.2.3 bus2=420911_129_164240_444.1.2.3 switch=n enabled=y phases=3 Linecode=3P_OH_Code1

New Line.oh_14847412 Units=km Length=0.166503178 bus1=30907302000_15050083.1.2.3 bus2=30907102517.1.2.3 switch=y enabled=y phases=3 Linecode=11825_3

New Line.oh_5207754 Units=km Length=0.178218237 bus1=31108102506.1.3 bus2=31108102511.1.3 switch=n enabled=y phases=2 Linecode=2P_OH_Code14

New Line.oh_5204357-5 Units=km Length=0.102095404 bus1=421788_809_165366_063.1.2.3 bus2=31008402000.1.2.3 switch=n enabled=y phases=3 Linecode=3P_OH_Code1

New Line.oh_5222693 Units=km Length=0.11307879300000001 bus1=419373_719_164762_838.1.2.3 bus2=419387_54_164731_344.1.2.3 switch=n enabled=y phases=3 Linecode=3P_OH_Code2

New Line.oh_5185275-2 Units=km Length=0.25537709799999997 bus1=422542_678_166877_539.1.2.3 bus2=422552_036_166929_41.1.2.3 switch=n enabled=y phases=3 Linecode=3P_OH_Code1

New Line.oh_14847955-2 Units=km Length=0.121497904 bus1=421357_109_168259_266.1.2.3 bus2=30808402543.1.2.3 switch=n enabled=y phases=3 Linecode=3P_OH_Code1

New Line.oh_5204404-1 Units=km Length=0.294645538 bus1=31008402006.1.2.3 bus2=421788_809_165366_063.1.2.3 switch=n enabled=y phases=3 Linecode=3P_OH_Code1

New Line.oh_5186362 Units=km Length=0.467128401 bus1=421923_651_165705_919.1.2.3 bus2=31007102509.1.2.3 switch=n enabled=y phases=3 Linecode=3P_OH_Code1

New Line.oh_14847443 Units=km Length=0.147762518 bus1=422621_213_167396_204.1.2.3 bus2=30907302101.1.2.3 switch=y enabled=y phases=3 Linecode=11825_3

New Line.oh_5222839-5 Units=km Length=0.14697014200000003 bus1=31109402101.1.2.3 bus2=420043_366_164081_218.1.2.3 switch=n enabled=y phases=3 Linecode=3P_OH_Code1

New Line.oh_5222785-2 Units=km Length=0.146901488 bus1=419717_552_164391_015.1.2.3 bus2=419757_023_164369_91.1.2.3 switch=n enabled=y phases=3 Linecode=3P_OH_Code1

New Line.oh_5207623 Units=km Length=0.084780918 bus1=31108302507.1.3 bus2=420918_277_164087_374.1.3 switch=n enabled=y phases=2 Linecode=K_65_13.8KV_2

New Fuse.Fuse_oh_5207623 monitoredobj=Line.oh_5207623 enabled=y ratedcurrent=10000.0

New Line.oh_53992946 Units=km Length=0.128136339 bus1=30907302004.1.2.3 bus2=422499_219_166723_104.1.2.3 switch=y enabled=y phases=3 Linecode=11825_3

New Line.oh_5222258-1 Units=km Length=0.061093368 bus1=419250_55_164795_397.1.2.3 bus2=31109102013_37293738.1.2.3 switch=n enabled=y phases=3 Linecode=3P_OH_Code1

New Line.oh_5207369 Units=km Length=0.155144352 bus1=31108202013_5445890.1.2.3 bus2=421231_832_164468_213.1.2.3 switch=y enabled=y phases=3 Linecode=11825_3

New Line.oh_5516895 Units=km Length=0.01 bus1=31109103031_5517425.1.2.3 bus2=31109103066.1.2.3 switch=n enabled=y phases=3 Linecode=3P_OH_Code5

New Line.oh_5222501 Units=km Length=0.013265716 bus1=31109102013_37293738.1.2.3 bus2=419260_114_164772_552.1.2.3 switch=y enabled=y phases=3 Linecode=21898_3

New Line.oh_5185333 Units=km Length=0.09363795899999999 bus1=422499_219_166723_104.1.2.3 bus2=30907302014.1.2.3 switch=n enabled=y phases=3 Linecode=3P_OH_Code1

New Line.oh_5207633-5 Units=km Length=0.150516481 bus1=420933_417_164115_723.1.2.3 bus2=31108302517.1.2.3 switch=n enabled=y phases=3 Linecode=3P_OH_Code1

New Line.oh_5206987 Units=km Length=0.197144796 bus1=420619_283_164309_615.3 bus2=420572_504_164347_348.3 switch=n enabled=y phases=1 Linecode=1P_OH_Code3

New Line.oh_14847575 Units=km Length=0.396266204 bus1=30908202508.2 bus2=421629_563_167649_202.2 switch=n enabled=y phases=1 Linecode=1P_OH_Code3

New Line.ug_14808760 Units=km Length=0.024878603 bus1=30908202036.1.2.3 bus2=421192_902_167633_03.1.2.3 switch=y enabled=y phases=3 Linecode=SWT_TERMINATOR_3

New Line.ug_14806165 Units=km Length=0.06753621300000001 bus1=30808402532.1 bus2=421469_582_168393_9.1 switch=y enabled=y phases=1 Linecode=SWT_TERMINATOR_1

New Line.ug_44391431_1 Units=km Length=0.033729555 bus1=420677_279_168434_413.1.2.3 bus2=420677_279_168434_413_sec_0.1.2.3 switch=y enabled=y phases=3 Linecode=SWT_TERMINATOR_3

New Line.ug_5163086 Units=km Length=0.409197569 bus1=31007102014.1.2.3 bus2=422452_039_166084_189.1.2.3 switch=n enabled=y phases=3 Linecode=QG8_80_13.8KV_3

New Fuse.Fuse_ug_5163086 monitoredobj=Line.ug_5163086 enabled=y ratedcurrent=40000.0

New Line.ug_14819176_1 Units=km Length=0.376373887 bus1=421349_239_167942_74.1 bus2=421349_239_167942_74_sec_0.1 switch=y enabled=y phases=1 Linecode=SWT_TERMINATOR_1

New Line.ug_53992953 Units=km Length=0.465770707 bus1=30907302014.3 bus2=422488_511_166629_71.3 switch=n enabled=y phases=1 Linecode=K_40_13.8KV_1

New Fuse.Fuse_ug_53992953 monitoredobj=Line.ug_53992953 enabled=y ratedcurrent=10000.0

New Line.ug_5163259 Units=km Length=0.09516977300000001 bus1=31109202006.2 bus2=419934_062_164334_719.2 switch=n enabled=y phases=1 Linecode=K_40_13.8KV_1

New Fuse.Fuse_ug_5163259 monitoredobj=Line.ug_5163259 enabled=y ratedcurrent=10000.0

New Line.ug_5182881_1 Units=km Length=0.442769115 bus1=420713_606_163777_992.1.2.3 bus2=420713_606_163777_992_sec_0.1.2.3 switch=y enabled=y phases=3 Linecode=SWT_TERMINATOR_3

New Line.ug_14806232 Units=km Length=0.2675097 bus1=30808402016.1.2.3 bus2=421475_709_168523_471.1.2.3 switch=y enabled=y phases=3 Linecode=SWT_TERMINATOR_3

New Line.ug_14808740 Units=km Length=2.34430912 bus1=30908202103.1.2.3 bus2=TIEPOINT_15086537.1.2.3 switch=y enabled=n phases=3 Linecode=SWT_TERMINATOR_3

New Line.ug_14808547 Units=km Length=0.023836749 bus1=30908402003.3 bus2=30908402002.3 switch=n enabled=y phases=1 Linecode=1P_UG_Code15

New Line.ug_14809223 Units=km Length=0.021397944 bus1=30908402003.2 bus2=30908402002.2 switch=n enabled=y phases=1 Linecode=1P_UG_Code15

New Line.ug_33875419 Units=km Length=0.075418149 bus1=420648_6_163743_186.1.2.3 bus2=31108302052.1.2.3 switch=y enabled=y phases=3 Linecode=SWT_TERMINATOR_3

New Line.ug_5165335 Units=km Length=0.321899124 bus1=421082_759_164550_297.2 bus2=31108102004.2 switch=y enabled=y phases=1 Linecode=SWT_TERMINATOR_1

New Line.ug_5165661 Units=km Length=0.194063192 bus1=31108302043.2 bus2=420856_314_163491_286.2 switch=y enabled=y phases=1 Linecode=SWT_TERMINATOR_1

New Line.ug_25872843_1 Units=km Length=0.289533543 bus1=420835_438_163670_518.1 bus2=420835_438_163670_518_sec_0.1 switch=y enabled=y phases=1 Linecode=SWT_TERMINATOR_1

New Line.ug_14819098 Units=km Length=0.450707252 bus1=421255_182_167993_109.1 bus2=30908202031.1 switch=y enabled=y phases=1 Linecode=SWT_TERMINATOR_1

New Line.ug_14837778 Units=km Length=0.015273123999999999 bus1=30908202063.3 bus2=30908202064.3 switch=n enabled=y phases=1 Linecode=1P_UG_Code16

New Line.ug_5149228 Units=km Length=1.333217703 bus1=31007302001.2 bus2=422128_455_165347_914.2 switch=n enabled=y phases=1 Linecode=K_25_13.8KV_1

New Fuse.Fuse_ug_5149228 monitoredobj=Line.ug_5149228 enabled=y ratedcurrent=10000.0

New Line.ug_14821758_1 Units=km Length=0.39327224 bus1=421265_994_167860_474.1 bus2=421265_994_167860_474_sec_0.1 switch=y enabled=y phases=1 Linecode=SWT_TERMINATOR_1

New Line.ug_48530896_1 Units=km Length=1.459749728 bus1=421192_902_167633_03.1.2.3 bus2=421192_902_167633_03_sec_0.1.2.3 switch=y enabled=y phases=3 Linecode=SWT_TERMINATOR_3

New Line.ug_5184680_1 Units=km Length=1.651034095 bus1=420935_232_167047_403.1.2.3 bus2=420935_232_167047_403_sec_0.1.2.3 switch=y enabled=y phases=3 Linecode=SWT_TERMINATOR_3

New Line.ug_5163101 Units=km Length=0.464663184 bus1=31007102011.1.2.3 bus2=422611_232_166567_115.1.2.3 switch=n enabled=y phases=3 Linecode=K_100_13.8KV_3

New Fuse.Fuse_ug_5163101 monitoredobj=Line.ug_5163101 enabled=y ratedcurrent=10000.0

New Line.ug_5182891_1 Units=km Length=0.6308751549999999 bus1=420597_313_163718_517.1.2.3 bus2=420597_313_163718_517_sec_0.1.2.3 switch=y enabled=y phases=3 Linecode=SWT_TERMINATOR_3

New Line.ug_5163957 Units=km Length=0.9070434669999999 bus1=421493_161_165003_011.2 bus2=421426_61_165255_833.2 switch=y enabled=y phases=1 Linecode=SWT_TERMINATOR_1

New Line.ug_14837784 Units=km Length=0.5077730020000001 bus1=421385_555_167487_12.2 bus2=30908202064.2 switch=y enabled=y phases=1 Linecode=SWT_TERMINATOR_1

New Line.ug_5685268-2 Units=km Length=0.003325755 bus1=420774_289_163517_047.3 bus2=420775_154_163516_716.3 switch=n enabled=y phases=1 Linecode=1P_UG_Code17

New Line.ug_5150804 Units=km Length=0.122285286 bus1=31108302517.1.2.3 bus2=420904_319_164167_933.1.2.3 switch=n enabled=y phases=3 Linecode=K_25_13.8KV_3

New Fuse.Fuse_ug_5150804 monitoredobj=Line.ug_5150804 enabled=y ratedcurrent=10000.0

New Line.ug_5150861_1 Units=km Length=0.455653167 bus1=420924_574_164614_154.2 bus2=420924_574_164614_154_sec_0.2 switch=y enabled=y phases=1 Linecode=SWT_TERMINATOR_1

New Line.ug_29126428 Units=km Length=0.6283437669999999 bus1=31109202017.2 bus2=419621_753_164677_304.2 switch=y enabled=y phases=1 Linecode=SWT_TERMINATOR_1

New Line.ug_14820053_1 Units=km Length=0.511422313 bus1=421298_099_167618_659.1.2.3 bus2=421298_099_167618_659_sec_0.1.2.3 switch=y enabled=y phases=3 Linecode=SWT_TERMINATOR_3

New Line.ug_14808584-1 Units=km Length=1.012099455 bus1=30908202535_LEG3.1.2.3 bus2=30908102010.1.2.3 switch=n enabled=y phases=3 Linecode=3P_UG_Code18

New Line.ug_5183187 Units=km Length=0.25969922700000003 bus1=31109102010.1.2.3 bus2=419126_196_164853_71.1.2.3 switch=n enabled=y phases=3 Linecode=XL_80_13.8KV_3

New Fuse.Fuse_ug_5183187 monitoredobj=Line.ug_5183187 enabled=y ratedcurrent=40000.0

New Line.ug_5163975 Units=km Length=0.44297466300000005 bus1=30907302008.1.2.3 bus2=30907302010.1.2.3 switch=n enabled=y phases=3 Linecode=3P_UG_Code19

New Line.ug_41892284 Units=km Length=0.163904405 bus1=30908102019.3 bus2=421071_271_168138_489.3 switch=y enabled=y phases=1 Linecode=SWT_TERMINATOR_1

New Line.ug_14820366 Units=km Length=0.017526316 bus1=30908102010.3 bus2=30908102009.3 switch=n enabled=y phases=1 Linecode=1P_UG_Code15

New Line.ug_14836211 Units=km Length=0.302565052 bus1=30908202059.2 bus2=421535_092_167564_017.2 switch=y enabled=y phases=1 Linecode=SWT_TERMINATOR_1

New Line.ug_5149232 Units=km Length=0.7145344750000001 bus1=422128_455_165347_914.2 bus2=31007302511.2 switch=y enabled=y phases=1 Linecode=SWT_TERMINATOR_1

New Line.ug_5150882 Units=km Length=0.651302987 bus1=31109102569.3 bus2=419182_621_164576_978.3 switch=n enabled=y phases=1 Linecode=K_40_13.8KV_1

New Fuse.Fuse_ug_5150882 monitoredobj=Line.ug_5150882 enabled=y ratedcurrent=10000.0

New Line.ug_5184740 Units=km Length=0.97697887 bus1=420709_61_167012_504.1.2.3 bus2=30908302001.1.2.3 switch=y enabled=y phases=3 Linecode=SWT_TERMINATOR_3

New Line.ug_14808342_1 Units=km Length=0.480002883 bus1=422469_062_167723_264.1 bus2=422469_062_167723_264_sec_0.1 switch=y enabled=y phases=1 Linecode=SWT_TERMINATOR_1

New Line.ug_5182916 Units=km Length=0.537068915 bus1=420795_37_163751_786.1.2.3 bus2=31108302029.1.2.3 switch=y enabled=y phases=3 Linecode=SWT_TERMINATOR_3

New Line.ug_14821602_1 Units=km Length=0.355991639 bus1=421199_081_167841_422.1 bus2=421199_081_167841_422_sec_0.1 switch=y enabled=y phases=1 Linecode=SWT_TERMINATOR_1

New Line.ug_5184573 Units=km Length=0.486562765 bus1=31108302025_LEG1.3 bus2=31108302041.3 switch=n enabled=y phases=1 Linecode=1P_UG_Code15

New Line.ug_31530921 Units=km Length=0.053752059000000005 bus1=31108302053.1.2.3 bus2=420522_227_163836_219.1.2.3 switch=n enabled=y phases=3 Linecode=K_40_13.8KV_3

New Fuse.Fuse_ug_31530921 monitoredobj=Line.ug_31530921 enabled=y ratedcurrent=10000.0

New Line.ug_15266839-2 Units=km Length=0.008344974000000002 bus1=421192_1_167642_02.1.2.3 bus2=PROTDEV_15238283.1.2.3 switch=n enabled=y phases=3 Linecode=3P_UG_Code20

New Line.ug_29126406_1 Units=km Length=0.35431701600000004 bus1=419608_851_164790_729.2 bus2=419608_851_164790_729_sec_0.2 switch=y enabled=n phases=1 Linecode=SWT_TERMINATOR_1

New Line.ug_5183226 Units=km Length=0.019089833 bus1=420837_779_163438_949.2 bus2=31108302043.2 switch=y enabled=y phases=1 Linecode=SWT_TERMINATOR_1

New Line.ug_14821596_1 Units=km Length=0.377337332 bus1=421230_313_167794_768.1 bus2=421230_313_167794_768_sec_0.1 switch=y enabled=y phases=1 Linecode=SWT_TERMINATOR_1

New Line.ug_14819916_1 Units=km Length=0.219882678 bus1=421221_622_167973_924.2 bus2=421221_622_167973_924_sec_0.2 switch=y enabled=y phases=1 Linecode=SWT_TERMINATOR_1

New Line.ug_14808322 Units=km Length=0.38338624600000004 bus1=30907102001.1 bus2=422469_062_167723_264.1 switch=n enabled=y phases=1 Linecode=K_25_13.8KV_1

New Fuse.Fuse_ug_14808322 monitoredobj=Line.ug_14808322 enabled=y ratedcurrent=10000.0

New Line.ug_14835904_1 Units=km Length=0.242104142 bus1=421535_092_167564_017.2 bus2=421535_092_167564_017_sec_0.2 switch=y enabled=y phases=1 Linecode=SWT_TERMINATOR_1

New Line.ug_14837455_1 Units=km Length=0.7177317980000001 bus1=422301_124_167343_338.1.2.3 bus2=422301_124_167343_338_sec_0.1.2.3 switch=y enabled=y phases=3 Linecode=SWT_TERMINATOR_3

New Line.ug_33557645 Units=km Length=0.037668033000000004 bus1=30908402035.2 bus2=421261_064_167253_43.2 switch=y enabled=y phases=1 Linecode=SWT_TERMINATOR_1

New Line.ug_5152585 Units=km Length=0.408902464 bus1=420889_531_164529_468.2 bus2=31108102000.2 switch=y enabled=y phases=1 Linecode=SWT_TERMINATOR_1

New Line.ug_5149224 Units=km Length=1.2926566620000002 bus1=31007302000.2 bus2=421994_397_165472_097.2 switch=n enabled=y phases=1 Linecode=K_25_13.8KV_1

New Fuse.Fuse_ug_5149224 monitoredobj=Line.ug_5149224 enabled=y ratedcurrent=10000.0

New Line.ug_29126373_1 Units=km Length=0.517445538 bus1=419910_607_164620_189.2 bus2=419910_607_164620_189_sec_0.2 switch=y enabled=y phases=1 Linecode=SWT_TERMINATOR_1

New Line.ug_5150858 Units=km Length=0.310351034 bus1=31108102000.2 bus2=420924_574_164614_154.2 switch=y enabled=y phases=1 Linecode=SWT_TERMINATOR_1

New Line.ug_14821589-1 Units=km Length=0.31621317 bus1=30908202049.2 bus2=421769_075_167881_608.2 switch=n enabled=y phases=1 Linecode=K_65_13.8KV_1

New Fuse.Fuse_ug_14821589-1 monitoredobj=Line.ug_14821589-1 enabled=y ratedcurrent=10000.0

New Line.ug_14822472 Units=km Length=0.230902307 bus1=30908202057.1 bus2=421384_312_167658_525.1 switch=y enabled=y phases=1 Linecode=SWT_TERMINATOR_1

New Line.ug_14821240 Units=km Length=1.666487064 bus1=30808402043.1.2.3 bus2=TIEPOINT_15088906.1.2.3 switch=n enabled=y phases=3 Linecode=K_100_13.8KV_3

New Fuse.Fuse_ug_14821240 monitoredobj=Line.ug_14821240 enabled=y ratedcurrent=10000.0

New Line.ug_14819805 Units=km Length=0.037175565 bus1=30908202035.1.2.3 bus2=30908202102.1.2.3 switch=n enabled=y phases=3 Linecode=3P_UG_Code21

New Line.ug_14820215 Units=km Length=1.337594396 bus1=30908202531_15050139.1.2.3 bus2=30908202032.1.2.3 switch=y enabled=y phases=3 Linecode=11825_3

New Line.ug_15266859-2 Units=km Length=0.008317303000000002 bus1=PROTDEV_15237568.1.2.3 bus2=421192_268_167643_796.1.2.3 switch=n enabled=y phases=3 Linecode=3P_UG_Code20

New Line.ug_5183690 Units=km Length=0.12694569 bus1=31208102006.1 bus2=420769_523_163389_812.1 switch=y enabled=y phases=1 Linecode=SWT_TERMINATOR_1

New Line.ug_14805994 Units=km Length=0.172450954 bus1=30808402543.3 bus2=421311_538_168241_38.3 switch=n enabled=y phases=1 Linecode=K_40_13.8KV_1

New Fuse.Fuse_ug_14805994 monitoredobj=Line.ug_14805994 enabled=y ratedcurrent=10000.0

New Line.ug_14808737 Units=km Length=0.042017708 bus1=421812_71_168193_903.1 bus2=30908202103.1 switch=y enabled=y phases=1 Linecode=SWT_TERMINATOR_1

New Line.ug_5150745 Units=km Length=0.025879696 bus1=31108102508.3 bus2=420461_305_164626_705.3 switch=y enabled=y phases=1 Linecode=SWT_TERMINATOR_1

New Line.ug_5163453 Units=km Length=0.291015134 bus1=31108202021.2 bus2=421493_161_165003_011.2 switch=y enabled=y phases=1 Linecode=SWT_TERMINATOR_1

New Line.ug_5152588 Units=km Length=0.22450625700000001 bus1=31108102004.2 bus2=31108102001.2 switch=n enabled=y phases=1 Linecode=1P_UG_Code15

New Line.ug_47745127 Units=km Length=0.595150843 bus1=421036_178_167268_813.1.2.3 bus2=30908302000.1.2.3 switch=y enabled=y phases=3 Linecode=SWT_TERMINATOR_3

New Line.ug_14808532 Units=km Length=0.033106481 bus1=421166_815_167307_796.1 bus2=30908402002.1 switch=y enabled=y phases=1 Linecode=SWT_TERMINATOR_1

New Line.ug_5182886_1 Units=km Length=0.354979529 bus1=420668_833_163675_853.1.2.3 bus2=420668_833_163675_853_sec_0.1.2.3 switch=y enabled=y phases=3 Linecode=SWT_TERMINATOR_3

New Line.ug_5182865 Units=km Length=0.030512635 bus1=31108302030.3 bus2=31108302025_LEG2.3 switch=n enabled=y phases=1 Linecode=1P_UG_Code15

New Line.ug_14820058-1 Units=km Length=0.6515098500000001 bus1=30908202064.1.2.3 bus2=30908202036.1.2.3 switch=n enabled=y phases=3 Linecode=3P_UG_Code19

New Line.ug_14809829 Units=km Length=0.174487932 bus1=30907102003.1.2.3 bus2=422464_307_167602_799.1.2.3 switch=n enabled=y phases=3 Linecode=XL_80_13.8KV_3

New Fuse.Fuse_ug_14809829 monitoredobj=Line.ug_14809829 enabled=y ratedcurrent=40000.0

New Line.ug_34188832 Units=km Length=0.173348368 bus1=31109102011.1.2.3 bus2=419342_552_164747_553.1.2.3 switch=n enabled=y phases=3 Linecode=K_25_13.8KV_3

New Fuse.Fuse_ug_34188832 monitoredobj=Line.ug_34188832 enabled=y ratedcurrent=10000.0

New Line.ug_5152591 Units=km Length=0.397770108 bus1=31108102001.2 bus2=420889_531_164529_468.2 switch=y enabled=y phases=1 Linecode=SWT_TERMINATOR_1

New Line.ug_5148551 Units=km Length=0.034486310000000006 bus1=30907402547.1.2.3 bus2=TIEPOINT_5446330.1.2.3 switch=y enabled=n phases=3 Linecode=SWT_TERMINATOR_3

New Line.ug_5182906 Units=km Length=0.462164388 bus1=31108302034.1.2.3 bus2=420762_879_163582_071.1.2.3 switch=y enabled=y phases=3 Linecode=SWT_TERMINATOR_3

New Line.ug_5685265 Units=km Length=0.01 bus1=420774_289_163517_047.3 bus2=31108302025_LEG3.3 switch=y enabled=y phases=1 Linecode=12447_1

New Line.ug_5165649 Units=km Length=0.5742984760000001 bus1=420828_127_163558_042.3 bus2=31108302026.3 switch=y enabled=y phases=1 Linecode=SWT_TERMINATOR_1

New Line.ug_5163443 Units=km Length=0.8168954300000001 bus1=31008402004.3 bus2=421483_194_165298_505.3 switch=y enabled=y phases=1 Linecode=SWT_TERMINATOR_1

New Line.ug_5148756 Units=km Length=0.44672279 bus1=30908402036.1.2.3 bus2=TIEPOINT_15086390.1.2.3 switch=y enabled=n phases=3 Linecode=SWT_TERMINATOR_3

New Line.ug_33557664 Units=km Length=0.037224824 bus1=421261_064_167253_43.2 bus2=30908402036.2 switch=y enabled=y phases=1 Linecode=SWT_TERMINATOR_1

New Line.ug_5163095_1 Units=km Length=0.35767905 bus1=422611_232_166567_115.1.2.3 bus2=422611_232_166567_115_sec_0.1.2.3 switch=y enabled=y phases=3 Linecode=SWT_TERMINATOR_3

New Line.ug_5149183 Units=km Length=0.415501296 bus1=31007102019.1.2.3 bus2=422530_654_166216_077.1.2.3 switch=n enabled=y phases=3 Linecode=K_25_13.8KV_3

New Fuse.Fuse_ug_5149183 monitoredobj=Line.ug_5149183 enabled=y ratedcurrent=10000.0

New Line.ug_5149243 Units=km Length=0.30617798900000004 bus1=31007102010.2 bus2=422420_262_166561_13.2 switch=n enabled=y phases=1 Linecode=K_25_13.8KV_1

New Fuse.Fuse_ug_5149243 monitoredobj=Line.ug_5149243 enabled=y ratedcurrent=10000.0

New Line.ug_5148596 Units=km Length=0.025355004 bus1=422811_7_166815_034.1.2.3 bus2=30907402535.1.2.3 switch=y enabled=y phases=3 Linecode=SWT_TERMINATOR_3

New Line.ug_14819173 Units=km Length=0.09609394 bus1=30908202030.1 bus2=421349_239_167942_74.1 switch=y enabled=y phases=1 Linecode=SWT_TERMINATOR_1

...