OpenDSS/Feeder_7732/Transformers.dss
New Transformer.Trans_31109200023-XFO phases=1 windings=2 wdg=1 conn=wye Kv=13.2 kva=50.0 %R=0.11074536872270409 bus=419785_623_164616_544.2 wdg=2 conn=wye Kv=0.416 kva=50.0 %R=0.11074536872270409 bus=31109200023-XFO.2 XHL=0.4258425216272904

New Transformer.Trans_30908200052-XFO phases=1 windings=2 wdg=1 conn=wye Kv=13.2 kva=50.0 %R=0.1215322752623197 bus=421293_321_167787_944.1 wdg=2 conn=wye Kv=0.416 kva=50.0 %R=0.1215322752623197 bus=30908200052-XFO.1 XHL=0.46732076612968193

New Transformer.Trans_31008400011-XFO phases=1 windings=2 wdg=1 conn=wye Kv=13.2 kva=75.0 %R=0.14253576324256917 bus=421816_696_165439_965-1.2 wdg=2 conn=wye Kv=0.416 kva=75.0 %R=0.14253576324256917 bus=31008400011-XFO.2 XHL=0.4998669351896338

New Transformer.Trans_31109400001-XFO phases=1 windings=2 wdg=1 conn=wye Kv=13.2 kva=100.0 %R=0.10332368202567983 bus=419606_821_163972_326.3 wdg=2 conn=wye Kv=0.416 kva=100.0 %R=0.10332368202567983 bus=31109400001-XFO.3 XHL=0.5951444084679155

New Transformer.Trans_30908200012-XFO phases=1 windings=2 wdg=1 conn=wye Kv=13.2 kva=50.0 %R=0.13226057904431957 bus=30908202060-1.2 wdg=2 conn=wye Kv=0.416 kva=50.0 %R=0.13226057904431957 bus=30908200012-XFO.2 XHL=0.508573668964379

New Transformer.Trans_31108300020-XFO phases=3 windings=2 wdg=1 conn=wye Kv=13.2 kva=225.0 %R=0.14209387303009235 bus=420713_606_163777_992 wdg=2 conn=wye Kv=0.208 kva=225.0 %R=0.14209387303009235 bus=31108300020-XFO XHL=0.6778039730550657

New Transformer.Trans_30908200041-XFO phases=1 windings=2 wdg=1 conn=wye Kv=13.2 kva=50.0 %R=0.1215322752623197 bus=421106_895_167935_204.2 wdg=2 conn=wye Kv=0.416 kva=50.0 %R=0.1215322752623197 bus=30908200041-XFO.2 XHL=0.46732076612968193

New Transformer.Trans_31108300002-XFO phases=1 windings=2 wdg=1 conn=wye Kv=13.2 kva=25.0 %R=0.1605917603649162 bus=420343_774_163911_357-1.2 wdg=2 conn=wye Kv=0.416 kva=25.0 %R=0.1605917603649162 bus=31108300002-XFO.2 XHL=0.462660686225554

New Transformer.Trans_31109200005-XFO phases=1 windings=2 wdg=1 conn=wye Kv=13.2 kva=25.0 %R=0.1605917603649162 bus=419717_552_164391_015-1.1 wdg=2 conn=wye Kv=0.416 kva=25.0 %R=0.1605917603649162 bus=31109200005-XFO.1 XHL=0.462660686225554

New Transformer.Trans_30908200031-XFO phases=3 windings=2 wdg=1 conn=wye Kv=13.2 kva=300.0 %R=0.14649780408896643 bus=421573_959_168170_488 wdg=2 conn=wye Kv=0.48 kva=300.0 %R=0.14649780408896643 bus=30908200031-XFO XHL=0.7583915901814102

New Transformer.Trans_31008400008-XFO phases=1 windings=2 wdg=1 conn=wye Kv=13.2 kva=25.0 %R=0.1605917603649162 bus=421730_805_165211_926-1.1 wdg=2 conn=wye Kv=0.416 kva=25.0 %R=0.1605917603649162 bus=31008400008-XFO.1 XHL=0.462660686225554

New Transformer.Trans_30908200059-XFO phases=1 windings=2 wdg=1 conn=wye Kv=13.2 kva=25.0 %R=0.1586529520661163 bus=421395_702_167728_051.1 wdg=2 conn=wye Kv=0.416 kva=25.0 %R=0.1586529520661163 bus=30908200059-XFO.1 XHL=0.4570750299257272

New Transformer.Trans_31007100012-XFO phases=1 windings=2 wdg=1 conn=wye Kv=13.2 kva=25.0 %R=0.18232097409540507 bus=422453_086_166353_848-1.2 wdg=2 conn=wye Kv=0.416 kva=25.0 %R=0.18232097409540507 bus=31007100012-XFO.2 XHL=0.5252619860235352

New Transformer.Trans_30908300021-XFO phases=3 windings=2 wdg=1 conn=wye Kv=13.2 kva=1000.0 %R=0.09073043629765556 bus=421036_178_167268_813 wdg=2 conn=wye Kv=0.48 kva=1000.0 %R=0.09073043629765556 bus=30908300021-XFO XHL=1.87398526391851

New Transformer.Trans_31008400023-XFO phases=1 windings=2 wdg=1 conn=wye Kv=13.2 kva=100.0 %R=0.11769049265976349 bus=421605_117_165216_354.2 wdg=2 conn=wye Kv=0.416 kva=100.0 %R=0.11769049265976349 bus=31008400023-XFO.2 XHL=0.5559091590305101

New Transformer.Trans_30908200030-XFO phases=3 windings=2 wdg=1 conn=wye Kv=13.2 kva=500.0 %R=0.13813672963893303 bus=421671_288_168155_879 wdg=2 conn=wye Kv=0.48 kva=500.0 %R=0.13813672963893303 bus=30908200030-XFO XHL=0.9631373506245549

New Transformer.Trans_30908200056-XFO phases=1 windings=2 wdg=1 conn=wye Kv=13.2 kva=50.0 %R=0.1215322752623197 bus=421191_146_167900_683.1 wdg=2 conn=wye Kv=0.416 kva=50.0 %R=0.1215322752623197 bus=30908200056-XFO.1 XHL=0.46732076612968193

New Transformer.Trans_31109100013-XFO phases=3 windings=2 wdg=1 conn=wye Kv=13.2 kva=25.0 %R=0.16277255140447525 bus=419399_71_164703_621-1 wdg=2 conn=wye Kv=0.208 kva=25.0 %R=0.16277255140447525 bus=31109100013-XFO XHL=0.4689434885099566

New Transformer.Trans_31109100006-XFO phases=1 windings=2 wdg=1 conn=wye Kv=13.2 kva=25.0 %R=0.1605917603649162 bus=419208_115_164934_839-1.3 wdg=2 conn=wye Kv=0.416 kva=25.0 %R=0.1605917603649162 bus=31109100006-XFO.3 XHL=0.462660686225554

New Transformer.Trans_31109200008-XFO phases=1 windings=2 wdg=1 conn=wye Kv=13.2 kva=50.0 %R=0.1215322752623197 bus=419934_062_164334_719.2 wdg=2 conn=wye Kv=0.416 kva=50.0 %R=0.1215322752623197 bus=31109200008-XFO.2 XHL=0.46732076612968193

New Transformer.Trans_31109400006-XFO phases=1 windings=2 wdg=1 conn=wye Kv=13.2 kva=50.0 %R=0.13226057904431957 bus=420205_399_163967_73-1.3 wdg=2 conn=wye Kv=0.416 kva=50.0 %R=0.13226057904431957 bus=31109400006-XFO.3 XHL=0.508573668964379

New Transformer.Trans_30907100019-XFO phases=3 windings=2 wdg=1 conn=wye Kv=13.2 kva=300.0 %R=0.14852451325964208 bus=422277_485_167483_039 wdg=2 conn=wye Kv=0.208 kva=300.0 %R=0.14852451325964208 bus=30907100019-XFO XHL=0.7688834825366742

New Transformer.Trans_30907100005-XFO phases=1 windings=2 wdg=1 conn=wye Kv=13.2 kva=50.0 %R=0.13226057904431957 bus=422069_646_167800_625-1.1 wdg=2 conn=wye Kv=0.416 kva=50.0 %R=0.13226057904431957 bus=30907100005-XFO.1 XHL=0.508573668964379

New Transformer.Trans_31008400009-XFO phases=1 windings=2 wdg=1 conn=wye Kv=13.2 kva=25.0 %R=0.1605917603649162 bus=421831_532_165481_969-1.2 wdg=2 conn=wye Kv=0.416 kva=25.0 %R=0.1605917603649162 bus=31008400009-XFO.2 XHL=0.462660686225554

New Transformer.Trans_30907100009-XFO phases=1 windings=2 wdg=1 conn=wye Kv=13.2 kva=25.0 %R=0.1605917603649162 bus=30907102002-1.1 wdg=2 conn=wye Kv=0.416 kva=25.0 %R=0.1605917603649162 bus=30907100009-XFO.1 XHL=0.462660686225554

New Transformer.Trans_31007100013-XFO phases=3 windings=2 wdg=1 conn=wye Kv=13.2 kva=300.0 %R=0.14852451325964208 bus=422530_654_166216_077 wdg=2 conn=wye Kv=0.208 kva=300.0 %R=0.14852451325964208 bus=31007100013-XFO XHL=0.7688834825366742

New Transformer.Trans_30908200006-XFO phases=1 windings=2 wdg=1 conn=wye Kv=13.2 kva=50.0 %R=0.13226057904431957 bus=421385_368_167811_062-1.1 wdg=2 conn=wye Kv=0.416 kva=50.0 %R=0.13226057904431957 bus=30908200006-XFO.1 XHL=0.508573668964379

New Transformer.Trans_31108100026-XFO phases=1 windings=2 wdg=1 conn=wye Kv=13.2 kva=50.0 %R=0.1215322752623197 bus=420461_305_164626_705.3 wdg=2 conn=wye Kv=0.416 kva=50.0 %R=0.1215322752623197 bus=31108100026-XFO.3 XHL=0.46732076612968193

New Transformer.Trans_30908300001-XFO phases=3 windings=2 wdg=1 conn=wye Kv=13.2 kva=750.0 %R=0.11461355469298966 bus=420935_232_167047_403 wdg=2 conn=wye Kv=0.48 kva=750.0 %R=0.11461355469298966 bus=30908300001-XFO XHL=1.889076883574619

New Transformer.Trans_30907400035-XFO phases=3 windings=2 wdg=1 conn=wye Kv=13.2 kva=1500.0 %R=0.08775271203106645 bus=422811_7_166815_034 wdg=2 conn=wye Kv=0.48 kva=1500.0 %R=0.08775271203106645 bus=30907400035-XFO XHL=1.8647451306601588

New Transformer.Trans_30908400032-XFO phases=3 windings=2 wdg=1 conn=wye Kv=13.2 kva=300.0 %R=0.14649780408896643 bus=421188_144_167345_376 wdg=2 conn=wye Kv=0.48 kva=300.0 %R=0.14649780408896643 bus=30908400032-XFO XHL=0.7583915901814102

New Transformer.Trans_31108100011-XFO phases=1 windings=2 wdg=1 conn=wye Kv=13.2 kva=25.0 %R=0.1605917603649162 bus=31108102005-1.2 wdg=2 conn=wye Kv=0.416 kva=25.0 %R=0.1605917603649162 bus=31108100011-XFO.2 XHL=0.462660686225554

New Transformer.Trans_31108100025-XFO phases=1 windings=2 wdg=1 conn=wye Kv=13.2 kva=25.0 %R=0.1586529520661163 bus=420440_481_164356_331.3 wdg=2 conn=wye Kv=0.416 kva=25.0 %R=0.1586529520661163 bus=31108100025-XFO.3 XHL=0.4570750299257272

New Transformer.Trans_31108300032-XFO phases=1 windings=2 wdg=1 conn=wye Kv=13.2 kva=100.0 %R=0.11769049265976349 bus=420809_613_163497_49.2 wdg=2 conn=wye Kv=0.416 kva=100.0 %R=0.11769049265976349 bus=31108300032-XFO.2 XHL=0.5559091590305101

New Transformer.Trans_30908200003-XFO phases=1 windings=2 wdg=1 conn=wye Kv=13.2 kva=25.0 %R=0.1605917603649162 bus=421422_768_167911_411-1.1 wdg=2 conn=wye Kv=0.416 kva=25.0 %R=0.1605917603649162 bus=30908200003-XFO.1 XHL=0.462660686225554

New Transformer.Trans_31108100012-XFO phases=1 windings=2 wdg=1 conn=wye Kv=13.2 kva=25.0 %R=0.18232097409540507 bus=421078_884_164447_488-1.2 wdg=2 conn=wye Kv=0.416 kva=25.0 %R=0.18232097409540507 bus=31108100012-XFO.2 XHL=0.5252619860235352

New Transformer.Trans_31108100013-XFO phases=1 windings=2 wdg=1 conn=wye Kv=13.2 kva=25.0 %R=0.18232097409540507 bus=420955_644_164306_948-1.1 wdg=2 conn=wye Kv=0.416 kva=25.0 %R=0.18232097409540507 bus=31108100013-XFO.1 XHL=0.5252619860235352

New Transformer.Trans_31109100042-XFO phases=1 windings=2 wdg=1 conn=wye Kv=13.2 kva=50.0 %R=0.1215322752623197 bus=419182_621_164576_978.3 wdg=2 conn=wye Kv=0.416 kva=50.0 %R=0.1215322752623197 bus=31109100042-XFO.3 XHL=0.46732076612968193

New Transformer.Trans_31008400021-XFO phases=1 windings=2 wdg=1 conn=wye Kv=13.2 kva=100.0 %R=0.11769049265976349 bus=421438_581_165367_213.2 wdg=2 conn=wye Kv=0.416 kva=100.0 %R=0.11769049265976349 bus=31008400021-XFO.2 XHL=0.5559091590305101

New Transformer.Trans_30808400003-XFO phases=3 windings=2 wdg=1 conn=wye Kv=13.2 kva=150.0 %R=0.1402103070098478 bus=421354_22_168464_525 wdg=2 conn=wye Kv=0.48 kva=150.0 %R=0.1402103070098478 bus=30808400003-XFO XHL=0.6479740820688188

New Transformer.Trans_31007300010-XFO phases=1 windings=2 wdg=1 conn=wye Kv=13.2 kva=25.0 %R=0.1586529520661163 bus=421994_397_165472_097.2 wdg=2 conn=wye Kv=0.416 kva=25.0 %R=0.1586529520661163 bus=31007300010-XFO.2 XHL=0.4570750299257272

New Transformer.Trans_31108100023-XFO phases=1 windings=2 wdg=1 conn=wye Kv=13.2 kva=25.0 %R=0.1586529520661163 bus=420439_949_164528_623.3 wdg=2 conn=wye Kv=0.416 kva=25.0 %R=0.1586529520661163 bus=31108100023-XFO.3 XHL=0.4570750299257272

New Transformer.Trans_30907300009-XFO phases=1 windings=2 wdg=1 conn=wye Kv=13.2 kva=25.0 %R=0.1605917603649162 bus=422316_405_167134_561-1.2 wdg=2 conn=wye Kv=0.416 kva=25.0 %R=0.1605917603649162 bus=30907300009-XFO.2 XHL=0.462660686225554

New Transformer.Trans_31008400004-XFO phases=1 windings=2 wdg=1 conn=wye Kv=13.2 kva=25.0 %R=0.1605917603649162 bus=421657_579_165501_139-1.1 wdg=2 conn=wye Kv=0.416 kva=25.0 %R=0.1605917603649162 bus=31008400004-XFO.1 XHL=0.462660686225554

New Transformer.Trans_30908200053-XFO phases=1 windings=2 wdg=1 conn=wye Kv=13.2 kva=50.0 %R=0.1215322752623197 bus=421357_585_167891_917.1 wdg=2 conn=wye Kv=0.416 kva=50.0 %R=0.1215322752623197 bus=30908200053-XFO.1 XHL=0.46732076612968193

New Transformer.Trans_31108200011-XFO phases=1 windings=2 wdg=1 conn=wye Kv=13.2 kva=50.0 %R=0.1215322752623197 bus=421082_759_164550_297.2 wdg=2 conn=wye Kv=0.416 kva=50.0 %R=0.1215322752623197 bus=31108200011-XFO.2 XHL=0.46732076612968193

New Transformer.Trans_31109200029-XFO phases=1 windings=2 wdg=1 conn=wye Kv=13.2 kva=50.0 %R=0.11074536872270409 bus=419910_607_164620_189.2 wdg=2 conn=wye Kv=0.416 kva=50.0 %R=0.11074536872270409 bus=31109200029-XFO.2 XHL=0.4258425216272904

New Transformer.Trans_30907300031-XFO phases=1 windings=2 wdg=1 conn=wye Kv=13.2 kva=100.0 %R=0.10332368202567983 bus=422488_511_166629_71.3 wdg=2 conn=wye Kv=0.416 kva=100.0 %R=0.10332368202567983 bus=30907300031-XFO.3 XHL=0.5951444084679155

New Transformer.Trans_31008400019-XFO phases=1 windings=2 wdg=1 conn=wye Kv=13.2 kva=100.0 %R=0.11769049265976349 bus=421470_879_165091_318.3 wdg=2 conn=wye Kv=0.416 kva=100.0 %R=0.11769049265976349 bus=31008400019-XFO.3 XHL=0.5559091590305101

New Transformer.Trans_30908200013-XFO phases=1 windings=2 wdg=1 conn=wye Kv=13.2 kva=25.0 %R=0.1605917603649162 bus=421629_563_167649_202-1.2 wdg=2 conn=wye Kv=0.416 kva=25.0 %R=0.1605917603649162 bus=30908200013-XFO.2 XHL=0.462660686225554

New Transformer.Trans_31109100010-XFO phases=1 windings=2 wdg=1 conn=wye Kv=13.2 kva=50.0 %R=0.13226057904431957 bus=419369_476_164519_484-1.2 wdg=2 conn=wye Kv=0.416 kva=50.0 %R=0.13226057904431957 bus=31109100010-XFO.2 XHL=0.508573668964379

New Transformer.Trans_31008400030-XFO phases=1 windings=2 wdg=1 conn=wye Kv=13.2 kva=50.0 %R=0.11074536872270409 bus=421828_633_165686_228.3 wdg=2 conn=wye Kv=0.416 kva=50.0 %R=0.11074536872270409 bus=31008400030-XFO.3 XHL=0.4258425216272904

New Transformer.Trans_30908200028-XFO phases=1 windings=2 wdg=1 conn=wye Kv=13.2 kva=50.0 %R=0.1215322752623197 bus=421349_239_167942_74.1 wdg=2 conn=wye Kv=0.416 kva=50.0 %R=0.1215322752623197 bus=30908200028-XFO.1 XHL=0.46732076612968193

New Transformer.Trans_30907100012-XFO phases=1 windings=2 wdg=1 conn=wye Kv=13.2 kva=25.0 %R=0.1605917603649162 bus=422366_393_167668_464-1.3 wdg=2 conn=wye Kv=0.416 kva=25.0 %R=0.1605917603649162 bus=30907100012-XFO.3 XHL=0.462660686225554

New Transformer.Trans_31108300030-XFO phases=1 windings=2 wdg=1 conn=wye Kv=13.2 kva=100.0 %R=0.11769049265976349 bus=420828_127_163558_042.3 wdg=2 conn=wye Kv=0.416 kva=100.0 %R=0.11769049265976349 bus=31108300030-XFO.3 XHL=0.5559091590305101

New Transformer.Trans_31108100014-XFO phases=1 windings=2 wdg=1 conn=wye Kv=13.2 kva=10.0 %R=0.20286281604041853 bus=420911_129_164240_444-1.1 wdg=2 conn=wye Kv=0.416 kva=10.0 %R=0.20286281604041853 bus=31108100014-XFO.1 XHL=0.3751992412487069

New Transformer.Trans_31208100301-XFO phases=1 windings=2 wdg=1 conn=wye Kv=13.2 kva=25.0 %R=0.1605917603649162 bus=420810_575_163132_589-1.3 wdg=2 conn=wye Kv=0.416 kva=25.0 %R=0.1605917603649162 bus=31208100301-XFO.3 XHL=0.462660686225554

New Transformer.Trans_31007100005-XFO phases=1 windings=2 wdg=1 conn=wye Kv=13.2 kva=25.0 %R=0.1605917603649162 bus=31007102001-1.3 wdg=2 conn=wye Kv=0.416 kva=25.0 %R=0.1605917603649162 bus=31007100005-XFO.3 XHL=0.462660686225554

New Transformer.Trans_31109100031-XFO phases=1 windings=2 wdg=1 conn=wye Kv=13.2 kva=25.0 %R=0.1605917603649162 bus=419464_822_164413_811-1.2 wdg=2 conn=wye Kv=0.416 kva=25.0 %R=0.1605917603649162 bus=31109100031-XFO.2 XHL=0.462660686225554

New Transformer.Trans_30907300016-XFO phases=1 windings=2 wdg=1 conn=wye Kv=13.2 kva=100.0 %R=0.10332368202567983 bus=422534_845_167320_578.2 wdg=2 conn=wye Kv=0.416 kva=100.0 %R=0.10332368202567983 bus=30907300016-XFO.2 XHL=0.5951444084679155

New Transformer.Trans_31007100015-XFO phases=1 windings=2 wdg=1 conn=wye Kv=13.2 kva=25.0 %R=0.1605917603649162 bus=421987_561_166033_147-1.3 wdg=2 conn=wye Kv=0.416 kva=25.0 %R=0.1605917603649162 bus=31007100015-XFO.3 XHL=0.462660686225554

New Transformer.Trans_31007300001-XFO phases=1 windings=2 wdg=1 conn=wye Kv=13.2 kva=25.0 %R=0.1605917603649162 bus=421923_651_165705_919-1.3 wdg=2 conn=wye Kv=0.416 kva=25.0 %R=0.1605917603649162 bus=31007300001-XFO.3 XHL=0.462660686225554

New Transformer.Trans_30908400033-XFO phases=1 windings=2 wdg=1 conn=wye Kv=13.2 kva=50.0 %R=0.1215322752623197 bus=421166_815_167307_796.1 wdg=2 conn=wye Kv=0.416 kva=50.0 %R=0.1215322752623197 bus=30908400033-XFO.1 XHL=0.46732076612968193

New Transformer.Trans_31108100018-XFO phases=1 windings=2 wdg=1 conn=wye Kv=13.2 kva=50.0 %R=0.13226057904431957 bus=420572_504_164347_348-1.3 wdg=2 conn=wye Kv=0.416 kva=50.0 %R=0.13226057904431957 bus=31108100018-XFO.3 XHL=0.508573668964379

New Transformer.Trans_30908400027-XFO phases=1 windings=2 wdg=1 conn=wye Kv=13.2 kva=100.0 %R=0.10332368202567983 bus=421261_064_167253_43.2 wdg=2 conn=wye Kv=0.416 kva=100.0 %R=0.10332368202567983 bus=30908400027-XFO.2 XHL=0.5951444084679155

New Transformer.Trans_30908200037-XFO phases=3 windings=2 wdg=1 conn=wye Kv=13.2 kva=25.0 %R=0.16016292056668174 bus=421614_495_167944_905-1 wdg=2 conn=wye Kv=0.208 kva=25.0 %R=0.16016292056668174 bus=30908200037-XFO XHL=0.4614252099166753

New Transformer.Trans_30808400005-XFO phases=1 windings=2 wdg=1 conn=wye Kv=13.2 kva=25.0 %R=0.1605917603649162 bus=421221_001_168397_668-1.3 wdg=2 conn=wye Kv=0.416 kva=25.0 %R=0.1605917603649162 bus=30808400005-XFO.3 XHL=0.462660686225554

New Transformer.Trans_31108300029-XFO phases=1 windings=2 wdg=1 conn=wye Kv=13.2 kva=100.0 %R=0.11769049265976349 bus=420878_833_163606_467.3 wdg=2 conn=wye Kv=0.416 kva=100.0 %R=0.11769049265976349 bus=31108300029-XFO.3 XHL=0.5559091590305101

New Transformer.Trans_31007100003-XFO phases=1 windings=2 wdg=1 conn=wye Kv=13.2 kva=25.0 %R=0.1605917603649162 bus=422278_191_166039_735-1.3 wdg=2 conn=wye Kv=0.416 kva=25.0 %R=0.1605917603649162 bus=31007100003-XFO.3 XHL=0.462660686225554

New Transformer.Trans_30908200008-XFO phases=1 windings=2 wdg=1 conn=wye Kv=13.2 kva=10.0 %R=0.20286281604041853 bus=421538_642_167846_227-1.1 wdg=2 conn=wye Kv=0.416 kva=10.0 %R=0.20286281604041853 bus=30908200008-XFO.1 XHL=0.3751992412487069

New Transformer.Trans_30908400034-XFO phases=3 windings=2 wdg=1 conn=wye Kv=13.2 kva=150.0 %R=0.1599963098014765 bus=421228_307_167320_173 wdg=2 conn=wye Kv=0.208 kva=150.0 %R=0.1599963098014765 bus=30908400034-XFO XHL=0.7394139859541745

New Transformer.Trans_31007300011-XFO phases=1 windings=2 wdg=1 conn=wye Kv=13.2 kva=25.0 %R=0.1586529520661163 bus=422128_455_165347_914.2 wdg=2 conn=wye Kv=0.416 kva=25.0 %R=0.1586529520661163 bus=31007300011-XFO.2 XHL=0.4570750299257272

New Transformer.Trans_31208100308-XFO phases=1 windings=2 wdg=1 conn=wye Kv=13.2 kva=25.0 %R=0.1605917603649162 bus=420728_044_163283_795-1.3 wdg=2 conn=wye Kv=0.416 kva=25.0 %R=0.1605917603649162 bus=31208100308-XFO.3 XHL=0.462660686225554

New Transformer.Trans_31108200008-XFO phases=1 windings=2 wdg=1 conn=wye Kv=13.2 kva=50.0 %R=0.1215322752623197 bus=421127_495_164727_041.3 wdg=2 conn=wye Kv=0.416 kva=50.0 %R=0.1215322752623197 bus=31108200008-XFO.3 XHL=0.46732076612968193

New Transformer.Trans_30908200020-XFO phases=1 windings=2 wdg=1 conn=wye Kv=13.2 kva=25.0 %R=0.1605917603649162 bus=421646_583_167933_448-1.2 wdg=2 conn=wye Kv=0.416 kva=25.0 %R=0.1605917603649162 bus=30908200020-XFO.2 XHL=0.462660686225554

New Transformer.Trans_30907300017-XFO phases=1 windings=2 wdg=1 conn=wye Kv=13.2 kva=25.0 %R=0.1605917603649162 bus=422542_678_166877_539-1.1 wdg=2 conn=wye Kv=0.416 kva=25.0 %R=0.1605917603649162 bus=30907300017-XFO.1 XHL=0.462660686225554

...