OpenDSS/Feeder_7732/Loads.dss
New Load.Load_31007300011-l_B_B bus1=31007300011-XFO.2 kV=0.416 model=1 kW=13.989194 kvar=5.6569233552048335 Phases=1

New Load.Load_30908100018-l_C_C bus1=30908100018-XFO.3 kV=0.416 model=1 kW=23.751208 kvar=10.27912769444693 Phases=1

New Load.Load_31109200003-l_A_A bus1=31109200003-XFO.1 kV=0.416 model=1 kW=34.342364 kvar=14.515107565242767 Phases=1

New Load.Load_30908200031-l_A_B_C_A_B_C bus1=30908200031-XFO.3.2.1 kV=0.48 model=1 kW=174.9459 kvar=79.28997851804574 Phases=3

New Load.Load_31108100018-l_C_C bus1=31108100018-XFO.3 kV=0.416 model=1 kW=40.98272 kvar=17.587626724064183 Phases=1

New Load.Load_30907100001-l_A_B_C_B_A_C bus1=30907100001-XFO.3.2.1 kV=0.208 model=1 kW=207.29171399999998 kvar=90.30845571249044 Phases=3

New Load.Load_31109200005-l_A_A bus1=31109200005-XFO.1 kV=0.416 model=1 kW=42.985445 kvar=17.28710695977841 Phases=1

New Load.Load_31108100036-l_B_B bus1=31108100036-XFO.2 kV=0.416 model=1 kW=18.490693 kvar=7.828616177080328 Phases=1

New Load.Load_31007100020-l_C_C bus1=31007100020-XFO.3 kV=0.416 model=1 kW=13.453965 kvar=5.748145887668313 Phases=1

New Load.Load_31108200010-l_B_B bus1=31108200010-XFO.2 kV=0.416 model=1 kW=32.927459999999996 kvar=14.225621390661095 Phases=1

New Load.Load_31007100019-l_A_A bus1=31007100019-XFO.1 kV=0.416 model=1 kW=14.21298 kvar=6.026964100721718 Phases=1

New Load.Load_31007100016-l_A_A bus1=31007100016-XFO.1 kV=0.416 model=1 kW=15.592821 kvar=6.648971742176535 Phases=1

New Load.Load_30907300020-l_B_B bus1=30907300020-XFO.2 kV=0.416 model=1 kW=45.038705 kvar=17.753521220763904 Phases=1

New Load.Load_31108100023-l_C_C bus1=31108100023-XFO.3 kV=0.416 model=1 kW=16.955131 kvar=7.437240358286775 Phases=1

New Load.Load_31108300032-l_B_B bus1=31108300032-XFO.2 kV=0.416 model=1 kW=57.352088 kvar=24.34915607198087 Phases=1

New Load.Load_31108300026-l_A_B_C_A_B_C bus1=31108300026-XFO.3.2.1 kV=0.208 model=1 kW=77.35875 kvar=34.001124292187974 Phases=3

New Load.Load_30908200023-l_A_A bus1=30908200023-XFO.1 kV=0.416 model=1 kW=24.751541 kvar=10.76172604570396 Phases=1

New Load.Load_31109100012-l_C_C bus1=31109100012-XFO.3 kV=0.416 model=1 kW=18.093654000000004 kvar=7.855467861537965 Phases=1

New Load.Load_30908200054-l_A_A bus1=30908200054-XFO.1 kV=0.416 model=1 kW=21.094654000000002 kvar=9.303263397746761 Phases=1

New Load.Load_30907300011-l_A_A bus1=30907300011-XFO.1 kV=0.416 model=1 kW=19.607302 kvar=8.454669806815257 Phases=1

New Load.Load_31008400030-l_C_C bus1=31008400030-XFO.3 kV=0.416 model=1 kW=39.214605 kvar=16.909339980972675 Phases=1

New Load.Load_30908200042-l_B_B bus1=30908200042-XFO.2 kV=0.416 model=1 kW=18.938267 kvar=8.568698517893964 Phases=1

New Load.Load_31108300015-l_A_B_C_A_B_C bus1=31108300015-XFO.3.2.1 kV=0.208 model=1 kW=21.783030000000004 kvar=9.504322787688661 Phases=3

New Load.Load_31109200010-l_C_C bus1=31109200010-XFO.3 kV=0.416 model=1 kW=27.408095999999997 kvar=11.737590709746291 Phases=1

New Load.Load_31108300006-l_A_A bus1=31108300006-XFO.1 kV=0.416 model=1 kW=20.664612 kvar=8.396920564715407 Phases=1

New Load.Load_31008400012-l_A_A bus1=31008400012-XFO.1 kV=0.416 model=1 kW=16.593154000000002 kvar=7.1315700934335675 Phases=1

New Load.Load_31008400023-l_B_B bus1=31008400023-XFO.2 kV=0.416 model=1 kW=27.908262999999998 kvar=11.978890126593656 Phases=1

New Load.Load_31109100031-l_B_B bus1=31109100031-XFO.2 kV=0.416 model=1 kW=11.935934000000001 kvar=5.190509094219338 Phases=1

New Load.Load_31208100006-l_A_A bus1=31208100006-XFO.1 kV=0.416 model=1 kW=30.391565000000003 kvar=13.351647220610511 Phases=1

New Load.Load_30908200013-l_B_B bus1=30908200013-XFO.2 kV=0.416 model=1 kW=17.558425 kvar=7.946690394001445 Phases=1

New Load.Load_31109200004-l_C_C bus1=31109200004-XFO.3 kV=0.416 model=1 kW=38.758267000000004 kvar=16.252388793595536 Phases=1

New Load.Load_30908100017-l_C_C bus1=30908100017-XFO.3 kV=0.416 model=1 kW=17.21398 kvar=7.474759636930514 Phases=1

New Load.Load_31108100031-l_A_B_C_A_B_C bus1=31108100031-XFO.3.2.1 kV=0.208 model=1 kW=26.716629 kvar=11.316641723549044 Phases=3

New Load.Load_31108300031-l_B_B bus1=31108300031-XFO.2 kV=0.416 model=1 kW=48.261433 kvar=20.837074336631588 Phases=1

New Load.Load_31008400005-l_A_A bus1=31008400005-XFO.1 kV=0.416 model=1 kW=15.437100000000001 kvar=6.879603564837799 Phases=1

New Load.Load_31007100011-l_A_B_C_A_B_C bus1=31007100011-XFO.3.2.1 kV=0.48 model=1 kW=236.778837 kvar=97.283333956463 Phases=3

New Load.Load_30808400042-l_A_B_C_A_B_C bus1=30808400042-XFO.3.2.1 kV=0.208 model=1 kW=240.66880500000002 kvar=104.00844212738548 Phases=3

New Load.Load_30808400050-l_C_C bus1=30808400050-XFO.3 kV=0.416 model=1 kW=18.455631 kvar=8.161138126391174 Phases=1

New Load.Load_30808400006-l_C_C bus1=30808400006-XFO.3 kV=0.416 model=1 kW=16.816941 kvar=7.501611206292617 Phases=1

New Load.Load_31108300005-l_B_B bus1=31108300005-XFO.2 kV=0.416 model=1 kW=25.786938 kvar=10.911803297430012 Phases=1

...